
  EPA STORM WATER MANAGEMENT MODEL - VERSION 5.1 (Build 5.1.013)
  --------------------------------------------------------------

  WARNING 04: minimum elevation drop used for Conduit 1838.1
  WARNING 04: minimum elevation drop used for Conduit HAL2-1(01)
  WARNING 04: minimum elevation drop used for Conduit HAL2-1(06)
  WARNING 04: minimum elevation drop used for Conduit HAMC(02)
  WARNING 04: minimum elevation drop used for Conduit HAMC(06)
  WARNING 04: minimum elevation drop used for Conduit HPMC(06A)
  WARNING 04: minimum elevation drop used for Conduit HPMC(07)
  WARNING 04: minimum elevation drop used for Conduit L112
  WARNING 04: minimum elevation drop used for Conduit UAL1(03)
  WARNING 04: minimum elevation drop used for Conduit UAL3(01)
  WARNING 04: minimum elevation drop used for Conduit UAL6(03)
  WARNING 04: minimum elevation drop used for Conduit UAL6(04)
  WARNING 04: minimum elevation drop used for Conduit UAL6-1(01)
  WARNING 04: minimum elevation drop used for Conduit UAL6-3(01)
  WARNING 04: minimum elevation drop used for Conduit UAL6-4(01)
  WARNING 02: maximum depth increased for Node S005418
  WARNING 02: maximum depth increased for Node S005419
  WARNING 02: maximum depth increased for Node S005445
  WARNING 02: maximum depth increased for Node S012451
  WARNING 02: maximum depth increased for Node S024481
  WARNING 02: maximum depth increased for Node S024498
  
  *********************************************************
  NOTE: The summary statistics displayed in this report are
  based on results found at every computational time step,  
  not just on results from each reporting time step.
  *********************************************************
  
  ****************
  Analysis Options
  ****************
  Flow Units ............... CFS
  Process Models:
    Rainfall/Runoff ........ YES
    RDII ................... NO
    Snowmelt ............... NO
    Groundwater ............ NO
    Flow Routing ........... YES
    Ponding Allowed ........ NO
    Water Quality .......... NO
  Infiltration Method ...... HORTON
  Flow Routing Method ...... DYNWAVE
  Surcharge Method ......... SLOT
  Starting Date ............ 01/01/2004 00:00:00
  Ending Date .............. 01/20/2004 03:00:00
  Antecedent Dry Days ...... 0.0
  Report Time Step ......... 00:04:00
  Wet Time Step ............ 00:01:00
  Dry Time Step ............ 00:01:00
  Routing Time Step ........ 1.00 sec
  Variable Time Step ....... YES
  Maximum Trials ........... 8
  Number of Threads ........ 1
  Head Tolerance ........... 0.001000 ft
  
  
  **************************        Volume         Depth
  Runoff Quantity Continuity     acre-feet        inches
  **************************     ---------       -------
  Total Precipitation ......      1259.516         5.001
  Evaporation Loss .........         0.000         0.000
  Infiltration Loss ........       882.177         3.503
  Surface Runoff ...........       377.265         1.498
  Final Storage ............         0.194         0.001
  Continuity Error (%) .....        -0.010
  
  
  **************************        Volume        Volume
  Flow Routing Continuity        acre-feet      10^6 gal
  **************************     ---------     ---------
  Dry Weather Inflow .......         0.000         0.000
  Wet Weather Inflow .......       377.264       122.937
  Groundwater Inflow .......         0.000         0.000
  RDII Inflow ..............         0.000         0.000
  External Inflow ..........         0.000         0.000
  External Outflow .........       128.032        41.721
  Flooding Loss ............       103.123        33.604
  Evaporation Loss .........         0.000         0.000
  Exfiltration Loss ........         0.000         0.000
  Initial Stored Volume ....        30.669         9.994
  Final Stored Volume ......       173.027        56.383
  Continuity Error (%) .....         0.920
  
  
  *************************
  Highest Continuity Errors
  *************************
  Node S011442 (91.77%)
  Node S005447 (-55.22%)
  Node S011404 (36.70%)
  Node S012450 (30.10%)
  Node S005427 (23.08%)
  
  
  ***************************
  Time-Step Critical Elements
  ***************************
  None
  
  
  ********************************
  Highest Flow Instability Indexes
  ********************************
  Link UAL5-1(01) (2)
  Link UAL6(03) (1)
  Link UAL6-3(01) (1)
  
  
  *************************
  Routing Time Step Summary
  *************************
  Minimum Time Step           :     0.04 sec
  Average Time Step           :     1.00 sec
  Maximum Time Step           :     1.00 sec
  Percent in Steady State     :     0.00
  Average Iterations per Step :     2.03
  Percent Not Converging      :     0.14
  
  
  ***************************
  Subcatchment Runoff Summary
  ***************************
  
  ------------------------------------------------------------------------------------------------------------------------------
                            Total      Total      Total      Total     Imperv       Perv      Total       Total     Peak  Runoff
                           Precip      Runon       Evap      Infil     Runoff     Runoff     Runoff      Runoff   Runoff   Coeff
  Subcatchment                 in         in         in         in         in         in         in    10^6 gal      CFS
  ------------------------------------------------------------------------------------------------------------------------------
  S004400#1                  5.00       0.00       0.00       3.45       0.00       1.56       1.56        0.79    54.76   0.311
  S004400#2                  5.00       0.00       0.00       3.53       0.00       1.48       1.48        1.04    64.10   0.295
  S004401#1                  5.00       0.00       0.00       3.56       0.00       1.44       1.44        4.30   249.12   0.288
  S004403#1                  5.00       0.00       0.00       3.48       0.00       1.52       1.52        1.30    86.15   0.304
  S004405#1                  5.00       0.00       0.00       3.36       0.00       1.64       1.64        1.14    85.29   0.327
  S005016#1                  5.00       0.00       0.00       3.32       0.00       1.68       1.68        0.19    14.37   0.336
  S005036#1                  5.00       0.00       0.00       3.46       0.00       1.55       1.55        0.82    56.22   0.309
  S005038A#1                 5.00       0.00       0.00       3.33       0.00       1.67       1.67        0.33    24.45   0.334
  S005045#1                  5.00       0.00       0.00       3.55       0.00       1.45       1.45        0.26    15.47   0.290
  S005046#1                  5.00       0.00       0.00       3.44       0.00       1.56       1.56        0.36    25.17   0.313
  S005051#1                  5.00       0.00       0.00       3.32       0.00       1.68       1.68        0.10     7.70   0.336
  S005056#1                  5.00       0.00       0.00       3.34       0.00       1.66       1.66        0.05     3.49   0.331
  S005060#1                  5.00       0.00       0.00       3.33       0.00       1.67       1.67        0.21    15.93   0.334
  S005065#1                  5.00       0.00       0.00       3.52       0.00       1.48       1.48        0.41    25.27   0.295
  S005079#1                  5.00       0.00       0.00       3.37       0.00       1.63       1.63        0.31    23.51   0.326
  S005082#1                  5.00       0.00       0.00       3.34       0.00       1.66       1.66        0.29    21.88   0.331
  S005102#1                  5.00       0.00       0.00       3.40       0.00       1.60       1.60        0.40    29.61   0.319
  S005401#1                  5.00       0.00       0.00       3.44       0.00       1.57       1.57        1.93   136.49   0.313
  S005403#1                  5.00       0.00       0.00       3.46       0.00       1.54       1.54        0.58    39.64   0.308
  S005404#1                  5.00       0.00       0.00       3.38       0.00       1.62       1.62        0.31    22.94   0.325
  S005404#2                  5.00       0.00       0.00       3.48       0.00       1.52       1.52        0.32    21.16   0.304
  S005408#1                  5.00       0.00       0.00       3.33       0.00       1.67       1.67        0.25    19.11   0.334
  S005408#2                  5.00       0.00       0.00       3.37       0.00       1.64       1.64        0.18    13.57   0.327
  S005409#1                  5.00       0.00       0.00       3.34       0.00       1.66       1.66        0.20    15.34   0.332
  S005409#2                  5.00       0.00       0.00       3.45       0.00       1.55       1.55        0.77    53.13   0.309
  S005410#1                  5.00       0.00       0.00       3.36       0.00       1.64       1.64        0.46    34.32   0.329
  S005411#1                  5.00       0.00       0.00       3.38       0.00       1.62       1.62        1.25    93.64   0.325
  S005413#1                  5.00       0.00       0.00       3.35       0.00       1.65       1.65        0.55    41.34   0.330
  S005413#2                  5.00       0.00       0.00       3.46       0.00       1.54       1.54        0.70    47.98   0.308
  S005418#1                  5.00       0.00       0.00       3.37       0.00       1.63       1.63        0.23    17.08   0.326
  S005424#1                  5.00       0.00       0.00       3.34       0.00       1.67       1.67        0.58    43.77   0.333
  S005426#1                  5.00       0.00       0.00       3.37       0.00       1.63       1.63        0.34    25.36   0.326
  S005428#1                  5.00       0.00       0.00       3.29       0.00       1.71       1.71        0.16    11.86   0.342
  S005432#1                  5.00       0.00       0.00       3.30       0.00       1.71       1.71        0.12     8.52   0.341
  S005436#1                  5.00       0.00       0.00       3.30       0.00       1.70       1.70        0.36    26.30   0.340
  S005436#2                  5.00       0.00       0.00       1.18       3.24       0.56       3.80        4.73   168.38   0.760
  S005436#3                  5.00       0.00       0.00       0.80       3.76       0.41       4.17        2.02    67.73   0.834
  S005438#1                  5.00       0.00       0.00       3.49       0.00       1.52       1.52        0.48    31.86   0.303
  S005440#1                  5.00       0.00       0.00       3.36       0.00       1.64       1.64        0.45    33.68   0.328
  S005441#1                  5.00       0.00       0.00       3.32       0.00       1.68       1.68        0.18    13.18   0.336
  S005442#1                  5.00       0.00       0.00       3.33       0.00       1.67       1.67        0.07     5.51   0.335
  S005452#1                  5.00       0.00       0.00       3.41       0.00       1.59       1.59        1.23    89.89   0.318
  S005455#1                  5.00       0.00       0.00       3.41       0.00       1.59       1.59        0.72    52.62   0.318
  S005456#1                  5.00       0.00       0.00       3.40       0.00       1.60       1.60        0.43    31.63   0.320
  S005467#1                  5.00       0.00       0.00       3.34       0.00       1.67       1.67        0.32    24.33   0.333
  S005468#1                  5.00       0.00       0.00       3.33       0.00       1.68       1.68        0.08     5.82   0.335
  S006009#1                  5.00       0.00       0.00       3.34       0.00       1.67       1.67        0.11     7.89   0.333
  S006057#1                  5.00       0.00       0.00       3.37       0.00       1.63       1.63        0.73    54.41   0.325
  S006058#1                  5.00       0.00       0.00       3.46       0.00       1.55       1.55        0.86    59.22   0.309
  S006107#1                  5.00       0.00       0.00       3.34       0.00       1.66       1.66        0.06     4.14   0.332
  S006107#2                  5.00       0.00       0.00       3.80       0.00       1.20       1.20        0.12     4.63   0.240
  S006119#1                  5.00       0.00       0.00       3.46       0.00       1.54       1.54        0.49    33.67   0.308
  S006403#1                  5.00       0.00       0.00       3.35       0.00       1.65       1.65        0.63    47.73   0.330
  S006405#1                  5.00       0.00       0.00       3.37       0.00       1.63       1.63        0.34    25.53   0.325
  S006408#1                  5.00       0.00       0.00       3.41       0.00       1.60       1.60        0.62    45.51   0.319
  S006409#1                  5.00       0.00       0.00       3.40       0.00       1.60       1.60        0.56    40.72   0.320
  S006412#1                  5.00       0.00       0.00       3.40       0.00       1.61       1.61        0.71    52.04   0.321
  S006413#1                  5.00       0.00       0.00       3.39       0.00       1.61       1.61        0.59    43.97   0.323
  S006415#1                  5.00       0.00       0.00       3.49       0.00       1.51       1.51        1.85   120.22   0.301
  S006416#1                  5.00       0.00       0.00       3.42       0.00       1.58       1.58        0.45    32.54   0.316
  S006421#1                  5.00       0.00       0.00       3.49       0.00       1.51       1.51        1.18    77.13   0.302
  S006423#1                  5.00       0.00       0.00       3.41       0.00       1.59       1.59        0.51    36.82   0.318
  S006426#1                  5.00       0.00       0.00       3.47       0.00       1.53       1.53        1.18    78.76   0.305
  S006427#1                  5.00       0.00       0.00       3.41       0.00       1.59       1.59        0.60    43.91   0.319
  S006428#1                  5.00       0.00       0.00       3.39       0.00       1.62       1.62        0.38    28.53   0.323
  S006429#1                  5.00       0.00       0.00       3.38       0.00       1.62       1.62        0.51    37.84   0.324
  S006430#1                  5.00       0.00       0.00       3.42       0.00       1.59       1.59        0.70    50.51   0.317
  S006431#1                  5.00       0.00       0.00       3.38       0.00       1.62       1.62        0.36    26.74   0.325
  S006432#1                  5.00       0.00       0.00       3.33       0.00       1.67       1.67        0.09     6.87   0.334
  S006434#1                  5.00       0.00       0.00       3.36       0.00       1.64       1.64        0.16    11.93   0.328
  S006434#2                  5.00       0.00       0.00       3.52       0.00       1.48       1.48        1.69   104.76   0.296
  S006445#1                  5.00       0.00       0.00       3.36       0.00       1.64       1.64        0.36    27.06   0.329
  S006446#1                  5.00       0.00       0.00       3.36       0.00       1.64       1.64        1.24    93.46   0.328
  S006447#1                  5.00       0.00       0.00       3.32       0.00       1.68       1.68        0.26    19.14   0.336
  S006449#1                  5.00       0.00       0.00       3.35       0.00       1.66       1.66        0.04     3.25   0.331
  S006450#1                  5.00       0.00       0.00       3.48       0.00       1.52       1.52        0.42    27.64   0.304
  S006452#1                  5.00       0.00       0.00       3.33       0.00       1.67       1.67        0.24    17.83   0.334
  S006453#1                  5.00       0.00       0.00       3.45       0.00       1.55       1.55        0.33    22.88   0.311
  S006456#1                  5.00       0.00       0.00       3.33       0.00       1.67       1.67        0.74    55.06   0.335
  S006457#1                  5.00       0.00       0.00       3.44       0.00       1.56       1.56        0.27    18.79   0.312
  S006460#1                  5.00       0.00       0.00       3.37       0.00       1.63       1.63        0.27    20.56   0.326
  S006467#1                  5.00       0.00       0.00       3.32       0.00       1.68       1.68        0.14    10.25   0.337
  S006471#1                  5.00       0.00       0.00       3.33       0.00       1.67       1.67        0.22    16.13   0.334
  S006471#2                  5.00       0.00       0.00       3.34       0.00       1.66       1.66        0.13     9.66   0.332
  S007400#1                  5.00       0.00       0.00       3.43       0.00       1.57       1.57        0.90    64.16   0.314
  S009059#1                  5.00       0.00       0.00       3.48       0.00       1.52       1.52        1.53   101.05   0.304
  S009063#1                  5.00       0.00       0.00       3.44       0.00       1.56       1.56        0.39    27.68   0.313
  S009400#1                  5.00       0.00       0.00       3.48       0.00       1.52       1.52        1.66   109.82   0.304
  S010004#1                  5.00       0.00       0.00       3.43       0.00       1.57       1.57        0.38    27.20   0.314
  S010029#1                  5.00       0.00       0.00       3.37       0.00       1.63       1.63        0.29    21.49   0.326
  S010036#1                  5.00       0.00       0.00       3.40       0.00       1.60       1.60        0.83    61.42   0.321
  S010051#1                  5.00       0.00       0.00       3.44       0.00       1.57       1.57        0.49    34.79   0.313
  S010075#1                  5.00       0.00       0.00       3.37       0.00       1.63       1.63        0.14    10.54   0.326
  S010400#1                  5.00       0.00       0.00       3.38       0.00       1.63       1.63        0.12     9.19   0.325
  S010401#1                  5.00       0.00       0.00       3.38       0.00       1.62       1.62        0.22    16.42   0.325
  S010403#1                  5.00       0.00       0.00       3.37       0.00       1.63       1.63        0.16    12.29   0.327
  S010405#1                  5.00       0.00       0.00       3.36       0.00       1.65       1.65        0.22    16.93   0.329
  S010406#1                  5.00       0.00       0.00       3.41       0.00       1.59       1.59        0.42    30.35   0.318
  S010408#1                  5.00       0.00       0.00       3.38       0.00       1.62       1.62        0.29    21.89   0.323
  S010411#1                  5.00       0.00       0.00       3.33       0.00       1.67       1.67        0.67    50.23   0.334
  S010412#1                  5.00       0.00       0.00       3.42       0.00       1.58       1.58        0.45    32.66   0.317
  S010415#1                  5.00       0.00       0.00       3.72       0.00       1.28       1.28        3.28   144.81   0.255
  S010418#1                  5.00       0.00       0.00       3.40       0.00       1.60       1.60        0.93    68.43   0.321
  S011004#1                  5.00       0.00       0.00       3.34       0.00       1.67       1.67        0.09     6.69   0.333
  S011015#1                  5.00       0.00       0.00       3.44       0.00       1.56       1.56        0.87    60.67   0.312
  S011060#1                  5.00       0.00       0.00       3.35       0.00       1.65       1.65        0.08     6.36   0.329
  S011065#1                  5.00       0.00       0.00       3.35       0.00       1.65       1.65        0.08     6.36   0.331
  S011400#1                  5.00       0.00       0.00       3.78       0.00       1.22       1.22        4.76   192.13   0.244
  S011402#1                  5.00       0.00       0.00       3.42       0.00       1.58       1.58        0.99    71.00   0.316
  S011403#1                  5.00       0.00       0.00       3.35       0.00       1.65       1.65        1.63   122.64   0.331
  S011405#1                  5.00       0.00       0.00       3.33       0.00       1.67       1.67        0.24    18.22   0.333
  S011407#1                  5.00       0.00       0.00       4.61       0.00       0.39       0.39        2.62    41.08   0.078
  S011411#1                  5.00       0.00       0.00       3.37       0.00       1.63       1.63        0.66    49.17   0.327
  S011413#1                  5.00       0.00       0.00       3.35       0.00       1.65       1.65        0.09     6.97   0.329
  S011414#1                  5.00       0.00       0.00       3.30       0.00       1.71       1.71        0.03     2.15   0.341
  S011417#1                  5.00       0.00       0.00       3.50       0.00       1.51       1.51        0.32    20.65   0.301
  S011423#1                  5.00       0.00       0.00       3.38       0.00       1.62       1.62        0.98    72.67   0.324
  S011424#1                  5.00       0.00       0.00       3.40       0.00       1.61       1.61        0.69    51.11   0.321
  S011426#1                  5.00       0.00       0.00       3.30       0.00       1.70       1.70        0.07     5.15   0.340
  S011429#1                  5.00       0.00       0.00       5.00       0.00       0.00       0.00        0.00     0.00   0.000
  S011430#1                  5.00       0.00       0.00       3.37       0.00       1.63       1.63        0.31    23.62   0.327
  S011433#1                  5.00       0.00       0.00       3.33       0.00       1.67       1.67        0.09     6.43   0.334
  S011435#1                  5.00       0.00       0.00       3.40       0.00       1.60       1.60        0.18    13.26   0.319
  S011437#1                  5.00       0.00       0.00       3.47       0.00       1.53       1.53        0.63    42.47   0.307
  S011441#1                  5.00       0.00       0.00       3.35       0.00       1.65       1.65        0.21    15.66   0.330
  S012036#1                  5.00       0.00       0.00       3.37       0.00       1.63       1.63        0.57    43.03   0.326
  S012043#1                  5.00       0.00       0.00       3.38       0.00       1.63       1.63        0.49    36.87   0.325
  S012400#1                  5.00       0.00       0.00       3.31       0.00       1.69       1.69        1.41   104.40   0.338
  S012401#1                  5.00       0.00       0.00       3.46       0.00       1.54       1.54        1.74   118.35   0.308
  S012402#1                  5.00       0.00       0.00       3.45       0.00       1.55       1.55        1.17    80.95   0.310
  S012403#1                  5.00       0.00       0.00       3.47       0.00       1.53       1.53        1.41    95.17   0.307
  S012404#1                  5.00       0.00       0.00       3.33       0.00       1.67       1.67        0.71    52.91   0.334
  S012405#1                  5.00       0.00       0.00       3.35       0.00       1.65       1.65        1.00    75.59   0.330
  S012406#1                  5.00       0.00       0.00       3.39       0.00       1.61       1.61        0.23    16.85   0.322
  S012407#1                  5.00       0.00       0.00       3.43       0.00       1.57       1.57        0.60    42.51   0.314
  S012408#1                  5.00       0.00       0.00       3.49       0.00       1.52       1.52        1.51    99.78   0.303
  S012409#1                  5.00       0.00       0.00       3.69       0.00       1.31       1.31        4.14   192.45   0.261
  S012412#1                  5.00       0.00       0.00       3.31       0.00       1.69       1.69        0.18    13.19   0.338
  S012415#1                  5.00       0.00       0.00       3.50       0.00       1.50       1.50        0.58    37.38   0.300
  S012415#2                  5.00       0.00       0.00       3.34       0.00       1.67       1.67        0.67    50.14   0.333
  S012419#1                  5.00       0.00       0.00       3.41       0.00       1.59       1.59        0.20    14.83   0.319
  S012420#1                  5.00       0.00       0.00       3.62       0.00       1.38       1.38        4.96   260.90   0.276
  S012421#1                  5.00       0.00       0.00       3.36       0.00       1.64       1.64        0.09     6.49   0.328
  S012436#1                  5.00       0.00       0.00       3.49       0.00       1.51       1.51        0.69    45.49   0.303
  S012441#1                  5.00       0.00       0.00       3.35       0.00       1.65       1.65        0.52    39.24   0.331
  S012445#1                  5.00       0.00       0.00       3.40       0.00       1.61       1.61        0.24    17.45   0.321
  S012446#1                  5.00       0.00       0.00       3.40       0.00       1.60       1.60        0.36    26.33   0.321
  S013405#1                  5.00       0.00       0.00       1.34       2.98       0.66       3.64        3.09   115.60   0.728
  S013411#1                  5.00       0.00       0.00       3.51       0.00       1.49       1.49        2.54   160.26   0.298
  S024019#1                  5.00       0.00       0.00       3.31       0.00       1.69       1.69        0.17    12.37   0.338
  S024030A#1                 5.00       0.00       0.00       3.31       0.00       1.70       1.70        0.20    14.65   0.339
  S024042#1                  5.00       0.00       0.00       3.32       0.00       1.68       1.68        0.14    10.73   0.336
  S024065B#1                 5.00       0.00       0.00       3.30       0.00       1.70       1.70        0.02     1.74   0.341
  S024081#1                  5.00       0.00       0.00       3.32       0.00       1.69       1.69        0.32    23.81   0.337
  S024400#1                  5.00       0.00       0.00       3.36       0.00       1.64       1.64        0.84    62.93   0.328
  S024408#1                  5.00       0.00       0.00       3.49       0.00       1.51       1.51        1.70   110.95   0.302
  S024419#1                  5.00       0.00       0.00       3.57       0.00       1.44       1.44        2.02   116.73   0.287
  S024422#1                  5.00       0.00       0.00       3.33       0.00       1.68       1.68        0.22    16.27   0.335
  S024427#1                  5.00       0.00       0.00       3.35       0.00       1.65       1.65        0.54    40.31   0.329
  S024432#1                  5.00       0.00       0.00       3.32       0.00       1.68       1.68        0.22    16.15   0.337
  S024438#1                  5.00       0.00       0.00       3.33       0.00       1.68       1.68        0.33    24.38   0.335
  S024449#1                  5.00       0.00       0.00       3.31       0.00       1.69       1.69        0.46    34.34   0.338
  S024457#1                  5.00       0.00       0.00       3.31       0.00       1.70       1.70        0.11     8.28   0.339
  S024459#1                  5.00       0.00       0.00       3.32       0.00       1.68       1.68        0.22    16.32   0.337
  S024463#1                  5.00       0.00       0.00       3.31       0.00       1.70       1.70        0.03     1.98   0.339
  S024468#1                  5.00       0.00       0.00       3.31       0.00       1.69       1.69        0.20    14.51   0.338
  S024470#1                  5.00       0.00       0.00       3.31       0.00       1.69       1.69        0.13     9.44   0.338
  S024479#1                  5.00       0.00       0.00       3.31       0.00       1.69       1.69        0.13     9.57   0.338
  S024484#1                  5.00       0.00       0.00       3.31       0.00       1.69       1.69        0.10     7.09   0.338
  S024485#1                  5.00       0.00       0.00       3.32       0.00       1.68       1.68        0.13     9.50   0.336
  S024488#1                  5.00       0.00       0.00       3.39       0.00       1.61       1.61        0.39    29.18   0.322
  S024497#1                  5.00       0.00       0.00       3.52       0.00       1.48       1.48        0.38    23.54   0.296
  S024498#1                  5.00       0.00       0.00       3.38       0.00       1.63       1.63        0.34    25.76   0.325
  S025002D#1                 5.00       0.00       0.00       3.32       0.00       1.68       1.68        0.07     5.01   0.337
  S025401#1                  5.00       0.00       0.00       3.30       0.00       1.70       1.70        0.08     5.86   0.340
  S025402#1                  5.00       0.00       0.00       3.32       0.00       1.68       1.68        0.25    18.56   0.336
  S025406#1                  5.00       0.00       0.00       3.32       0.00       1.68       1.68        0.08     5.72   0.337
  S025407#1                  5.00       0.00       0.00       3.31       0.00       1.69       1.69        0.09     6.30   0.339
  S025410#1                  5.00       0.00       0.00       3.31       0.00       1.70       1.70        0.11     7.90   0.340
  S025411#1                  5.00       0.00       0.00       3.30       0.00       1.70       1.70        0.02     1.50   0.341
  S025418#1                  5.00       0.00       0.00       3.32       0.00       1.68       1.68        0.16    12.06   0.337
  S025420#1                  5.00       0.00       0.00       3.33       0.00       1.67       1.67        0.03     2.18   0.334
  S025421#1                  5.00       0.00       0.00       3.30       0.00       1.70       1.70        0.03     2.25   0.340
  S025423#1                  5.00       0.00       0.00       3.40       0.00       1.60       1.60        0.45    33.26   0.320
  S025423#2                  5.00       0.00       0.00       3.47       0.00       1.53       1.53        1.74   117.33   0.307
  
  
  ******************
  Node Depth Summary
  ******************
  
  ---------------------------------------------------------------------------------
                                 Average  Maximum  Maximum  Time of Max    Reported
                                   Depth    Depth      HGL   Occurrence   Max Depth
  Node                 Type         Feet     Feet     Feet  days hr:min        Feet
  ---------------------------------------------------------------------------------
  S004400              JUNCTION     0.06     1.98   725.98     0  12:48        1.98
  S004401              JUNCTION     0.02     3.89   731.08     0  12:58        3.88
  S004403              JUNCTION     0.06     3.68   725.68     0  12:46        3.65
  S004406              JUNCTION     0.00     0.48   726.09     0  13:01        0.48
  S004407              JUNCTION     0.02     4.08   731.08     0  12:56        4.07
  S004408              JUNCTION     0.08     1.84   719.58     0  13:26        1.84
  S004410              JUNCTION     0.09     2.05   718.55     0  13:27        2.05
  S004411              JUNCTION     0.11     2.09   718.24     0  13:29        2.09
  S005016              JUNCTION     1.34     1.70   730.66     0  13:45        1.69
  S005028              JUNCTION     1.33     4.23   733.21     0  12:30        4.23
  S005036              JUNCTION     0.50     2.49   732.32     0  12:44        2.49
  S005037              JUNCTION     0.66     1.34   731.00     0  12:44        1.34
  S005038A             JUNCTION     0.86     4.54   734.00     0  12:23        4.54
  S005043              JUNCTION     1.69     5.89   734.50     0  12:50        5.65
  S005044              JUNCTION     4.10     4.21   732.21     0  12:23        4.21
  S005045              JUNCTION     4.16     4.51   732.45     0  12:35        4.41
  S005046              JUNCTION     4.25     4.70   732.55     0  12:35        4.57
  S005047              JUNCTION     4.17     4.45   732.37     0  12:23        4.45
  S005051              JUNCTION     4.57     6.22   733.73     0  12:23        5.28
  S005056              JUNCTION     1.30     1.37   730.37    19  00:40        1.37
  S005058              JUNCTION     1.63     1.71   730.37    19  00:37        1.71
  S005060              JUNCTION     2.78     5.20   732.70     0  12:22        5.20
  S005062              JUNCTION     3.73     4.56   731.11     0  00:00        3.88
  S005064              JUNCTION     2.01     4.40   732.69     0  12:22        4.40
  S005065              JUNCTION     1.84     5.02   733.49     0  12:33        5.02
  S005073              JUNCTION     6.29     6.68   730.68     0  00:00        6.37
  S005078              JUNCTION     0.00     1.14   731.61     0  12:44        1.14
  S005079              JUNCTION     0.00     1.35   731.95     0  12:44        1.34
  S005081              JUNCTION     0.93     2.09   731.47     0  12:44        2.09
  S005082              JUNCTION     0.85     2.08   731.54     0  12:44        2.08
  S005102              JUNCTION     0.01     3.96   735.96     0  12:44        3.96
  S005103              JUNCTION     0.00     1.44   733.22     0  12:44        1.44
  S005403              JUNCTION     0.20     2.10   732.20     0  12:45        2.09
  S005404              JUNCTION     0.00     1.77   731.77     0  12:46        1.76
  S005406              JUNCTION     6.53     6.99   730.65     0  13:35        6.98
  S005407              JUNCTION     5.34     5.78   730.65     0  13:37        5.77
  S005408              JUNCTION     1.50     1.96   730.76     0  12:44        1.96
  S005409              JUNCTION     2.09     3.30   731.20     0  12:47        3.30
  S005410              JUNCTION     0.42     4.25   730.25     0  12:50        4.24
  S005412              JUNCTION     4.47     4.90   730.65     0  13:39        4.90
  S005413              JUNCTION     5.94     6.38   730.65     0  13:38        6.37
  S005414              JUNCTION     5.00     5.44   730.65     0  13:38        5.44
  S005417              JUNCTION     2.29     2.69   730.67     0  13:29        2.68
  S005418              JUNCTION     0.01     2.83   730.31     0  12:50        2.82
  S005419              JUNCTION     0.01     3.31   731.01     0  12:48        3.30
  S005420              JUNCTION     3.03     3.75   731.88     1  01:23        3.75
  S005421              JUNCTION     3.04     3.76   731.88     1  01:23        3.76
  S005422              JUNCTION     2.57     2.97   730.67     0  13:28        2.96
  S005423              JUNCTION     2.17     2.57   730.68     0  13:45        2.56
  S005424              JUNCTION     0.82     4.62   734.12     0  12:29        4.59
  S005425              JUNCTION     0.33     4.11   734.12     0  12:29        4.05
  S005426              JUNCTION     3.01     3.42   730.66     0  13:40        3.42
  S005427              JUNCTION     2.68     3.08   730.66     0  13:45        3.07
  S005428              JUNCTION     3.28     3.68   730.65     0  13:40        3.68
  S005429              JUNCTION     1.62     2.39   731.06     0  12:47        2.39
  S005430              JUNCTION     6.28     7.75   731.75     0  00:01        7.22
  S005431              JUNCTION     6.29     8.43   732.43     0  00:00        6.37
  S005432              JUNCTION     3.38     3.79   730.65     0  13:39        3.79
  S005433              JUNCTION     4.43     4.86   730.65     0  13:39        4.86
  S005434              JUNCTION     6.10     6.55   730.65     0  13:38        6.53
  S005435              JUNCTION     5.29     5.73   730.65     0  13:37        5.72
  S005436              JUNCTION     6.69     7.14   730.65     0  13:35        7.14
  S005437              JUNCTION     6.38     6.84   730.66     0  13:34        6.83
  S005438              JUNCTION     3.49     3.89   730.64     0  13:38        3.89
  S005439              JUNCTION     1.88     3.48   731.88     0  13:11        3.45
  S005440              JUNCTION     1.69     5.89   734.50     0  12:50        5.65
  S005441              JUNCTION     6.29     8.68   732.68     0  00:00        6.37
  S005442              JUNCTION     4.70     6.34   731.92     0  00:01        5.64
  S005443              JUNCTION     1.57     2.22   730.94     0  12:44        2.22
  S005444              JUNCTION     4.60     6.48   732.16     0  00:00        4.70
  S005445              JUNCTION     6.29     7.46   731.46     0  00:00        7.18
  S005446              JUNCTION     4.27     4.70   730.65     0  13:39        4.70
  S005447              JUNCTION     5.00     5.64   732.71     0  12:26        5.60
  S005448              JUNCTION     5.96     8.79   733.06     0  12:24        8.54
  S005451              JUNCTION     1.15     4.83   734.00     0  12:28        4.83
  S005452              JUNCTION     1.31     4.90   733.90     0  12:30        4.90
  S005453              JUNCTION     1.43     3.88   732.76     0  12:30        3.87
  S005454              JUNCTION     0.01     1.83   732.25     0  12:44        1.82
  S005455              JUNCTION     0.13     8.14   738.44     0  12:44        8.12
  S005456              JUNCTION     0.72     2.00   733.58     0  12:21        2.00
  S005457              JUNCTION     0.87     4.67   734.12     0  12:29        4.66
  S005458              JUNCTION     1.25     5.09   734.15     0  12:31        5.09
  S005459              JUNCTION     0.97     4.77   734.12     0  12:29        4.77
  S005462              JUNCTION     0.67     4.04   733.70     0  12:27        4.04
  S005467              JUNCTION     0.79     4.20   733.73     0  12:28        4.19
  S005468              JUNCTION     6.07     8.21   732.43     0  00:01        7.18
  S006008              JUNCTION     0.06    13.28   735.85     0  12:44       13.27
  S006009              JUNCTION     0.03    10.25   735.90     0  12:32        9.39
  S006057              JUNCTION     0.02     6.30   735.31     0  12:24        6.30
  S006058              JUNCTION     0.03     9.20   735.65     0  12:32        9.20
  S006075              JUNCTION     0.02     8.80   736.33     0  12:33        8.80
  S006106              JUNCTION     2.65     4.68   734.21     0  13:11        4.63
  S006107              JUNCTION     0.01     4.00   734.00     0  12:37        4.00
  S006108              JUNCTION     0.02     4.74   734.00     0  12:38        4.74
  S006117              JUNCTION     3.17     5.01   734.01     0  13:11        5.01
  S006118              JUNCTION     3.86     5.72   734.00     0  13:10        5.71
  S006119              JUNCTION     3.82     5.78   734.11     0  13:03        5.78
  S006400              JUNCTION     3.48     5.40   734.08     0  13:04        5.40
  S006403              JUNCTION     0.02     9.01   736.32     0  12:43        9.01
  S006404              JUNCTION     0.05     9.43   731.13     0  12:33        8.96
  S006405              JUNCTION     0.01     2.73   736.50     0  12:44        2.73
  S006406              JUNCTION     0.03     8.40   728.42     0  12:33        7.84
  S006408              JUNCTION     0.03    10.95   735.48     0  12:32       10.50
  S006409              JUNCTION     4.00     5.86   734.00     0  13:09        5.86
  S006411              JUNCTION     0.05    12.50   735.91     0  12:31       12.50
  S006412              JUNCTION     0.05    12.97   736.01     0  12:40       12.88
  S006413              JUNCTION     0.05    13.14   735.96     0  12:41       13.13
  S006415              JUNCTION     0.06    13.41   735.79     0  12:44       13.40
  S006416              JUNCTION     0.06    12.13   734.13     0  12:44       12.12
  S006417              JUNCTION     0.06    11.99   733.96     0  12:44       11.98
  S006418              JUNCTION     0.04    12.39   734.96     0  12:33       11.05
  S006419              JUNCTION     0.04    12.43   734.80     0  12:33       11.10
  S006420              JUNCTION     0.05    11.38   733.21     0  12:35       11.22
  S006421              JUNCTION     0.04    10.86   733.42     0  12:32       10.86
  S006422              JUNCTION     0.03     8.91   730.59     0  12:33        8.42
  S006423              JUNCTION     0.03    13.00   736.35     0  12:32       10.56
  S006424              JUNCTION     0.02    10.40   737.34     0  12:32        9.03
  S006425              JUNCTION     0.03    12.03   736.27     0  12:32        9.66
  S006426              JUNCTION     0.02    10.22   736.68     0  12:32        9.18
  S006427              JUNCTION     0.03    11.87   735.39     0  12:33       10.82
  S006428              JUNCTION     0.02     9.10   735.62     0  12:32        8.80
  S006429              JUNCTION     0.02     8.96   736.28     0  12:32        8.23
  S006430              JUNCTION     0.01     6.50   736.78     0  12:24        6.50
  S006431              JUNCTION     0.01     3.20   735.41     0  12:24        3.20
  S006432              JUNCTION     0.01     5.50   737.78     0  12:31        4.94
  S006433              JUNCTION     0.01     6.27   737.09     0  12:31        6.27
  S006434              JUNCTION     0.02     9.51   737.65     0  12:44        9.50
  S006435              JUNCTION     0.02     9.69   736.60     0  12:33        9.07
  S006436              JUNCTION     0.01     5.45   735.37     0  12:31        5.45
  S006437              JUNCTION     0.02     9.14   736.36     0  12:33        9.03
  S006438              JUNCTION     0.02     9.65   735.61     0  12:33        9.18
  S006440              JUNCTION     3.21     5.05   734.01     0  13:11        5.05
  S006441              JUNCTION     0.02     9.03   736.39     0  12:44        9.03
  S006442              JUNCTION     0.03     9.11   736.51     0  12:46        9.10
  S006443              JUNCTION     0.03     8.69   729.52     0  12:33        8.19
  S006444              JUNCTION     0.04     8.62   728.80     0  12:34        7.96
  S006445              JUNCTION     0.01     6.55   735.55     0  12:32        3.90
  S006446              JUNCTION     0.01     5.80   732.02     0  12:31        5.80
  S006447              JUNCTION     0.03     6.43   734.42     0  12:39        6.43
  S006449              JUNCTION     0.39     8.05   735.12     0  12:44        8.01
  S006450              JUNCTION     0.03     8.18   736.09     0  12:44        8.17
  S006452              JUNCTION     0.05     7.69   735.11     0  12:44        7.69
  S006453              JUNCTION     0.04     6.09   733.80     0  13:08        6.08
  S006455              JUNCTION     0.02     8.90   736.16     0  12:31        8.52
  S006456              JUNCTION     0.04    11.80   735.80     0  12:31       11.80
  S006457              JUNCTION     2.63     4.50   734.05     0  12:57        4.50
  S006458              JUNCTION     2.85     4.75   734.07     0  13:04        4.75
  S006459              JUNCTION     3.53     5.48   734.11     0  13:02        5.48
  S006460              JUNCTION     0.01     4.84   737.24     0  12:18        4.84
  S006463              JUNCTION     0.01     5.07   737.27     0  12:18        5.02
  S006464              JUNCTION     0.01     2.31   733.80     0  13:05        2.30
  S006466              JUNCTION     0.29     7.94   735.12     0  12:44        7.90
  S006467              JUNCTION     0.08     7.43   734.82     0  12:45        7.41
  S006468              JUNCTION     0.03     6.90   734.82     0  12:44        6.89
  S006469              JUNCTION     0.03     6.42   734.42     0  12:39        6.42
  S006470              JUNCTION     0.03     6.36   734.48     0  12:40        6.34
  S006471              JUNCTION     0.02     5.76   734.66     0  12:40        5.74
  S006472              JUNCTION     0.05     7.70   735.12     0  12:44        7.69
  S007400              JUNCTION     0.02    11.93   737.36     0  12:32        8.80
  S009059              JUNCTION     0.02     7.72   739.80     0  12:25        7.72
  S009060              JUNCTION     0.02     7.83   739.73     0  12:33        7.82
  S009061              JUNCTION     0.02     9.41   739.41     0  12:32        9.40
  S009063              JUNCTION     0.01     4.75   740.70     0  12:28        4.75
  S009400              JUNCTION     0.02     6.70   739.71     0  12:24        6.70
  S010004              JUNCTION     0.01     4.90   740.47     0  12:30        4.85
  S010005              JUNCTION     0.01     4.30   740.10     0  12:26        4.30
  S010014              JUNCTION     0.01     4.58   739.77     0  12:30        4.58
  S010016              JUNCTION     0.01     5.14   740.00     0  12:30        4.40
  S010018              JUNCTION     0.01     5.55   740.22     0  12:30        4.38
  S010027              JUNCTION     0.02     8.57   735.98     0  12:32        8.36
  S010029              JUNCTION     0.01     5.93   739.53     0  12:30        5.00
  S010034              JUNCTION     0.02     5.73   738.66     0  12:30        4.75
  S010036              JUNCTION     0.03    12.03   737.61     0  12:32       10.05
  S010038              JUNCTION     0.02     4.50   736.75     0  12:29        4.50
  S010039              JUNCTION     0.02     4.40   736.18     0  12:33        4.40
  S010040              JUNCTION     0.02    10.47   738.60     0  12:33        7.81
  S010042              JUNCTION     0.02     5.90   737.00     0  12:33        5.07
  S010047              JUNCTION     0.01     5.43   739.91     0  12:30        4.35
  S010051              JUNCTION     0.02     9.04   736.18     0  12:32        9.05
  S010052              JUNCTION     0.02     9.17   735.90     0  12:33        8.76
  S010060              JUNCTION     0.02     7.68   735.92     0  12:33        7.14
  S010067              JUNCTION     0.01     6.60   735.26     0  12:33        6.60
  S010074              JUNCTION     0.01     5.63   735.05     0  12:33        5.54
  S010075              JUNCTION     0.01     5.00   734.82     0  12:31        5.00
  S010077              JUNCTION     0.01     3.68   735.13     0  12:23        3.68
  S010400              JUNCTION     0.01     4.00   736.00     0  12:23        4.00
  S010401              JUNCTION     0.00     0.80   737.00     0  12:26        0.80
  S010402              JUNCTION     0.01     5.05   735.40     0  12:33        5.03
  S010403              JUNCTION     0.01     6.63   735.48     0  12:33        6.44
  S010404              JUNCTION     0.01     5.16   735.11     0  12:33        5.16
  S010405              JUNCTION     0.01     4.70   736.24     0  12:28        4.70
  S010406              JUNCTION     0.01     4.80   735.68     0  12:27        4.80
  S010407              JUNCTION     0.02     7.70   735.51     0  12:32        7.62
  S010408              JUNCTION     0.56    11.46   736.49     0  12:33       10.67
  S010409              JUNCTION     0.32    11.27   736.55     0  12:32       10.43
  S010410              JUNCTION     0.03    10.42   736.43     0  12:32        9.54
  S010411              JUNCTION     0.02     9.50   738.61     0  12:33        7.08
  S010412              JUNCTION     0.01     5.36   735.86     0  12:24        5.36
  S010413              JUNCTION     0.02    10.30   736.25     0  12:33        9.62
  S010415              JUNCTION     0.02     8.06   741.12     0  12:44        8.02
  S010416              JUNCTION     0.02     8.22   738.35     0  12:33        6.08
  S010418              JUNCTION     0.03    10.80   739.38     0  12:32       10.80
  S010419              JUNCTION     0.02    10.00   739.38     0  12:32       10.00
  S010421              JUNCTION     0.01     6.33   735.30     0  12:33        6.17
  S011004              JUNCTION     0.00     1.96   733.56     0  12:44        1.96
  S011005              JUNCTION     0.00     1.41   732.94     0  12:44        1.41
  S011015              JUNCTION     1.32     3.00   731.99     0  12:45        2.96
  S011060              JUNCTION     1.51     3.50   732.00     0  12:24        3.50
  S011065              JUNCTION     1.71     3.70   732.00     0  12:43        3.69
  S011068              JUNCTION     1.72     3.15   731.43     0  12:56        3.14
  S011075              JUNCTION     1.72     3.09   731.36     0  12:59        3.09
  S011077              JUNCTION     1.76     3.11   731.34     0  12:59        3.11
  S011401              JUNCTION     0.65     2.21   731.59     0  13:16        2.21
  S011404              JUNCTION     2.46     2.53   729.44     0  14:13        2.53
  S011405              JUNCTION     0.01     1.80   732.88     0  12:44        1.79
  S011408              JUNCTION     0.00     0.00   734.52     0  00:00        0.00
  S011409              JUNCTION     0.00     0.00   736.79     0  00:00        0.00
  S011410              JUNCTION     0.01     1.75   732.62     0  12:23        1.74
  S011411              JUNCTION     0.00     1.27   735.10     0  12:20        1.27
  S011412              JUNCTION     0.00     1.32   732.64     0  12:22        1.31
  S011413              JUNCTION     0.00     1.10   733.77     0  12:44        1.10
  S011414              JUNCTION     0.00     1.19   735.20     0  12:20        1.19
  S011415              JUNCTION     0.01     1.76   735.00     0  12:21        1.75
  S011416              JUNCTION     0.01     1.82   735.15     0  12:21        1.81
  S011417              JUNCTION     0.01     1.79   735.50     0  12:21        1.79
  S011418              JUNCTION     1.43     2.78   731.65     0  12:46        2.76
  S011419              JUNCTION     1.73     3.08   731.35     0  12:59        3.08
  S011421              JUNCTION     0.01     1.83   734.96     0  12:44        1.83
  S011422              JUNCTION     0.27     1.95   731.73     0  12:48        1.95
  S011423              JUNCTION     1.03     2.64   731.63     0  12:48        2.64
  S011424              JUNCTION     0.01     3.92   736.00     0  12:23        3.92
  S011425              JUNCTION     0.01     3.28   734.18     0  12:48        3.28
  S011426              JUNCTION     0.11     1.47   731.40     0  12:58        1.44
  S011428              JUNCTION     1.81     3.18   731.37     0  12:59        3.17
  S011429              JUNCTION     2.05     2.60   730.83     0  12:49        2.59
  S011430              JUNCTION     0.28     1.87   731.64     0  13:13        1.86
  S011431              JUNCTION     0.69     2.30   731.64     0  13:13        2.29
  S011432              JUNCTION     0.37     2.05   731.72     0  12:49        2.04
  S011433              JUNCTION     0.31     1.99   731.72     0  12:48        1.99
  S011434              JUNCTION     0.24     1.93   731.73     0  12:48        1.93
  S011435              JUNCTION     0.22     2.02   731.85     0  12:44        2.01
  S011437              JUNCTION     3.56     7.30   734.00     0  12:45        7.30
  S011438              JUNCTION     4.00     7.76   734.01     0  12:45        7.75
  S011439              JUNCTION     5.08     5.58   730.70     0  13:29        5.56
  S011440              JUNCTION     1.70     3.70   732.00     0  12:43        3.69
  S011441              JUNCTION     2.74     3.16   730.68     0  13:29        3.15
  S011442              JUNCTION     2.69     2.77   729.44     0  14:22        2.77
  S012018              JUNCTION     0.33     2.68   730.17     0  12:46        2.67
  S012019              JUNCTION     0.30     2.65   730.17     0  12:46        2.64
  S012035              JUNCTION     0.01     1.50   730.89     0  13:16        1.50
  S012036              JUNCTION     0.02     3.70   733.09     0  12:22        3.70
  S012037              JUNCTION     0.00     0.00   731.28     0  00:00        0.00
  S012038              JUNCTION     0.01     2.39   730.36     0  12:46        2.38
  S012040              JUNCTION     0.00     0.00   731.26     0  00:00        0.00
  S012040A             JUNCTION     1.51     4.63   730.90     0  14:26        3.96
  S012040B             JUNCTION     1.86     2.23   728.14     0  14:30        2.17
  S012043              JUNCTION     0.12     2.22   729.95     0  12:46        2.21
  S012402              JUNCTION     0.12     3.09   728.66     0  12:58        3.09
  S012406              JUNCTION     0.14     1.82   729.60     0  12:53        1.82
  S012407              JUNCTION     0.79     2.17   731.30     0  12:36        2.17
  S012408              JUNCTION     0.00     2.06   732.00     0  12:32        2.06
  S012409              JUNCTION     0.03     2.40   736.90     0  12:23        2.40
  S012410              JUNCTION     0.47     1.19   728.53     0  14:11        1.19
  S012411              JUNCTION     0.00     0.45   730.16     0  12:46        0.43
  S012412              JUNCTION     0.01     2.17   730.18     0  12:47        2.17
  S012413              JUNCTION     1.39     1.73   728.13     0  14:30        1.67
  S012414              JUNCTION     0.70     1.96   728.83     0  13:00        1.96
  S012415              JUNCTION     0.11     2.64   728.73     0  12:58        2.64
  S012416              JUNCTION     0.00     1.57   729.95     0  12:44        1.56
  S012417              JUNCTION     0.00     1.65   730.13     0  12:44        1.64
  S012418              JUNCTION     0.00     1.70   730.59     0  12:44        1.69
  S012419              JUNCTION     0.00     2.89   732.80     0  12:44        2.88
  S012420              JUNCTION     3.04     7.11   736.10     0  12:28        7.11
  S012421              JUNCTION     0.00     1.32   730.15     0  12:45        1.30
  S012422              JUNCTION     0.01     1.74   729.78     0  12:47        1.74
  S012423              JUNCTION     0.40     2.74   730.16     0  12:46        2.73
  S012424              JUNCTION     0.14     2.49   730.18     0  12:46        2.48
  S012425              JUNCTION     0.00     1.34   730.17     0  12:47        1.34
  S012426              JUNCTION     0.05     2.04   729.82     0  12:50        2.03
  S012427              JUNCTION     0.86     1.61   728.54     0  14:09        1.60
  S012428              JUNCTION     0.68     1.93   728.83     0  13:00        1.93
  S012429              JUNCTION     0.01     0.69   732.56     0  12:33        0.69
  S012430              JUNCTION     0.11     3.16   728.32     0  13:00        3.16
  S012431              JUNCTION     0.09     3.30   728.49     0  13:00        3.30
  S012432              JUNCTION     1.04     1.77   728.52     0  13:46        1.77
  S012433              JUNCTION     0.86     1.55   728.48     0  14:08        1.48
  S012434              JUNCTION     0.02     3.73   736.25     0  12:29        3.60
  S012436              JUNCTION     0.01     2.30   736.60     0  12:44        2.28
  S012438              JUNCTION     1.38     1.79   728.19     0  13:09        1.75
  S012439              JUNCTION     1.38     5.49   731.90     0  12:33        5.49
  S012440              JUNCTION     0.88     1.29   729.76     0  13:26        1.26
  S012441              JUNCTION     0.68     2.74   731.42     0  12:44        2.74
  S012442              JUNCTION     0.00     0.06   728.83     0  12:41        0.05
  S012443              JUNCTION     0.00     0.00   728.79     0  12:59        0.00
  S012444              JUNCTION     0.99     3.29   730.10     0  12:48        3.28
  S012445              JUNCTION     0.34     2.68   730.16     0  12:48        2.67
  S012446              JUNCTION     0.71     3.04   730.14     0  12:47        3.04
  S012447              JUNCTION     0.01     2.39   730.44     0  12:46        2.38
  S012449              JUNCTION     0.03     0.23   727.66     0  14:33        0.23
  S012451              JUNCTION     0.03     2.29   736.71     0  12:48        2.28
  S013400              JUNCTION     0.23     2.58   723.28     0  12:44        2.57
  S013402              JUNCTION     0.12     4.00   726.06     0  12:26        4.00
  S013403              JUNCTION     0.16     4.00   726.39     0  12:25        4.00
  S013404              JUNCTION     0.16     4.46   726.85     0  12:56        4.12
  S013405              JUNCTION     0.05     3.81   726.61     0  13:17        3.63
  S013406              JUNCTION     0.05     2.07   726.80     0  13:17        1.60
  S013407              JUNCTION     0.05     2.94   727.81     0  13:01        2.93
  S013408              JUNCTION     0.14     2.99   727.99     0  13:01        2.99
  S013409              JUNCTION     0.11     3.17   728.21     0  13:00        3.17
  S013411              JUNCTION     0.47     5.61   726.36     0  12:44        5.60
  S024019              JUNCTION     0.01     8.87   852.41     0  12:25        8.87
  S024030A             JUNCTION     0.00     1.04   818.04     0  12:44        1.04
  S024042              JUNCTION     0.01     8.55   842.05     0  12:44        8.55
  S024065B             JUNCTION     0.00     0.68   794.45     0  12:44        0.68
  S024081              JUNCTION     0.03    11.99   768.56     0  12:44       11.99
  S024095              JUNCTION     0.04     9.96   749.96     0  12:53        9.94
  S024190              JUNCTION     0.03     9.62   766.85     0  12:25        9.62
  S024400              JUNCTION     0.03     4.74   753.00     0  12:28        4.74
  S024401              JUNCTION     0.05     9.98   749.98     0  12:53        9.94
  S024402              JUNCTION     0.02     2.85   751.08     0  13:20        2.85
  S024403              JUNCTION     0.01     2.51   750.51     0  13:20        2.51
  S024404              JUNCTION     0.02     4.26   750.26     0  13:21        4.26
  S024405              JUNCTION     0.03     6.10   750.00     0  12:49        6.10
  S024406              JUNCTION     0.04     7.86   750.00     0  12:49        7.86
  S024407              JUNCTION     0.05     9.98   749.98     0  12:53        9.97
  S024408              JUNCTION     0.04     9.96   749.96     0  12:53        9.94
  S024409              JUNCTION     0.04     8.98   748.04     0  12:53        8.97
  S024411              JUNCTION     0.02     2.84   733.94     0  12:47        2.83
  S024412              JUNCTION     0.01     2.36   736.39     0  12:46        2.35
  S024413              JUNCTION     0.00     1.22   737.08     0  12:45        1.22
  S024414              JUNCTION     0.00     1.22   739.58     0  12:44        1.22
  S024415              JUNCTION     0.00     1.43   741.19     0  12:44        1.43
  S024416              JUNCTION     0.00     1.77   743.08     0  12:44        1.77
  S024417              JUNCTION     0.01     1.38   742.57     0  12:46        1.38
  S024418              JUNCTION     0.00     1.16   743.29     0  12:23        1.02
  S024419              JUNCTION     0.03     6.16   754.50     0  12:28        6.16
  S024420              JUNCTION     0.00     1.73   744.54     0  12:44        1.73
  S024421              JUNCTION     0.00     0.91   748.86     0  12:35        0.91
  S024422              JUNCTION     0.00     2.67   746.27     0  12:44        2.67
  S024423              JUNCTION     0.00     1.73   745.08     0  12:44        1.73
  S024424              JUNCTION     0.02     5.83   753.90     0  12:29        5.82
  S024427              JUNCTION     0.03    16.56   770.16     0  12:44       16.56
  S024430              JUNCTION     0.02    11.67   763.43     0  12:44       11.67
  S024431              JUNCTION     0.00     0.00     0.00     0  00:00        0.00
  S024432              JUNCTION     0.01     9.79   798.29     0  12:44        9.79
  S024437              JUNCTION     0.01    10.16   791.92     0  12:44       10.16
  S024438              JUNCTION     0.02    14.24   788.00     0  12:22       14.24
  S024439              JUNCTION     0.02     8.83   764.74     0  12:44        8.83
  S024440              JUNCTION     0.03     6.59   755.00     0  12:24        6.59
  S024441              JUNCTION     0.02     5.80   760.20     0  12:20        5.80
  S024442              JUNCTION     0.02    13.32   773.71     0  12:44       13.32
  S024443              JUNCTION     0.03     9.90   767.31     0  12:25        9.90
  S024444              JUNCTION     0.02    11.42   771.76     0  12:44       11.42
  S024445              JUNCTION     0.02    13.50   778.10     0  12:44       13.50
  S024446              JUNCTION     0.01     8.72   787.72     0  12:44        8.72
  S024447              JUNCTION     0.02    16.10   783.82     0  12:44       16.10
  S024448              JUNCTION     0.02    14.47   781.20     0  12:44       14.47
  S024449              JUNCTION     0.02    13.48   790.86     0  12:23       13.48
  S024450              JUNCTION     0.02    15.20   786.51     0  12:34       15.20
  S024453              JUNCTION     0.01     9.36   796.50     0  12:24        9.36
  S024455              JUNCTION     0.01     6.10   805.54     0  12:44        6.10
  S024457              JUNCTION     0.02    11.29   821.71     0  12:44       11.29
  S024459              JUNCTION     0.02    10.60   839.11     0  12:22       10.60
  S024460              JUNCTION     0.02    10.36   839.83     0  12:23       10.33
  S024461              JUNCTION     0.02    13.06   848.61     0  12:23       12.79
  S024462              JUNCTION     0.01    10.30   851.34     0  12:23       10.30
  S024463              JUNCTION     0.00     0.33   855.77     0  12:44        0.33
  S024464              JUNCTION     0.00     0.33   836.69     0  12:44        0.33
  S024465              JUNCTION     0.01     7.41   811.99     0  12:44        7.41
  S024468              JUNCTION     0.01     8.09   811.55     0  12:44        8.09
  S024469              JUNCTION     0.00     4.03   814.33     0  12:44        4.03
  S024470              JUNCTION     0.01     5.09   826.90     0  12:44        5.09
  S024471              JUNCTION     0.00     0.84   811.17     0  12:44        0.84
  S024472              JUNCTION     0.01     6.22   805.67     0  12:22        6.17
  S024473              JUNCTION     0.01     6.50   806.00     0  12:23        6.50
  S024479              JUNCTION     0.01     8.78   863.78     0  12:44        8.78
  S024480              JUNCTION     0.01     8.26   842.88     0  12:44        8.26
  S024481              JUNCTION     0.01     7.85   832.63     0  12:44        7.85
  S024482              JUNCTION     0.01     6.49   809.74     0  12:44        6.49
  S024483              JUNCTION     0.00     0.71   811.05     0  12:44        0.71
  S024484              JUNCTION     0.00     0.70   830.45     0  12:44        0.70
  S024485              JUNCTION     0.01     5.31   835.06     0  12:44        5.31
  S024486              JUNCTION     0.01     3.42   813.44     0  12:44        3.42
  S024487              JUNCTION     0.01     5.49   801.54     0  12:44        5.49
  S024488              JUNCTION     0.02    12.30   793.39     0  12:23       12.30
  S024489              JUNCTION     0.02    10.69   762.11     0  12:29       10.69
  S024490              JUNCTION     0.02     8.29   758.00     0  12:29        8.28
  S024491              JUNCTION     0.03    10.80   769.94     0  12:44       10.80
  S024494              JUNCTION     0.01     1.51   728.84     0  12:47        1.51
  S024496              JUNCTION     0.00     2.47   852.69     0  12:44        2.47
  S024497              JUNCTION     0.00     1.55   732.15     0  00:01        1.49
  S024498              JUNCTION     0.01     8.04   801.70     0  12:44        8.04
  S024499              JUNCTION     0.04     8.59   747.29     0  12:53        8.57
  S025002D             JUNCTION     0.00     0.54   864.85     0  12:44        0.54
  S025400              JUNCTION     0.02    14.23   846.91     0  12:44       14.23
  S025401              JUNCTION     0.01     9.14   844.47     0  12:20        9.15
  S025402              JUNCTION     0.02    16.22   858.37     0  12:44       16.22
  S025404              JUNCTION     0.01     6.85   858.75     0  12:44        6.85
  S025405              JUNCTION     0.00     0.54   861.13     0  12:44        0.54
  S025406              JUNCTION     0.01     5.00   872.00     0  12:20        5.00
  S025407              JUNCTION     0.01     4.72   904.40     0  12:44        4.72
  S025408              JUNCTION     0.00     3.11   898.70     0  12:44        3.11
  S025410              JUNCTION     0.01    10.76   893.29     0  12:44       10.76
  S025411              JUNCTION     0.00     0.69   894.43     0  12:44        0.69
  S025412              JUNCTION     0.01     9.27   880.38     0  12:44        9.27
  S025417              JUNCTION     0.01     9.76   859.94     0  12:44        9.76
  S025418              JUNCTION     0.01     9.71   870.47     0  12:44        9.71
  S025419              JUNCTION     0.01     4.66   872.24     0  12:44        4.66
  S025420              JUNCTION     0.00     0.42   878.06     0  12:44        0.42
  S025421              JUNCTION     0.00     0.43   862.49     0  12:44        0.43
  S025422              JUNCTION     3.83     7.58   734.00     0  12:45        7.58
  S025423              JUNCTION     4.94     8.72   734.00     0  12:28        8.72
  S027498              JUNCTION     0.04     1.63   731.93     0  12:44        1.63
  N123                 OUTFALL      0.00     0.00   723.20     0  00:00        0.00
  N518                 OUTFALL      0.03     5.82   724.93     0  12:33        5.82
  S004402              OUTFALL      0.00     0.42   715.69     0  13:01        0.42
  S004412              OUTFALL      0.05     1.85   714.85     0  13:29        1.85
  S013410              OUTFALL      0.06     1.99   722.69     0  12:44        1.99
  S024494A             OUTFALL      0.01     1.15   728.18     0  12:47        1.14
  N34                  STORAGE      2.32     2.45   726.45    19  03:00        2.45
  S004405              STORAGE      0.08     1.84   721.84     0  13:25        1.84
  S005401              STORAGE      6.40     6.86   730.66     0  13:34        6.85
  S005411              STORAGE      6.29     6.37   730.37    19  02:59        6.37
  S011400              STORAGE      3.08     3.44   730.84     0  15:31        3.44
  S011402              STORAGE      1.40     1.52   729.52     0  12:50        1.52
  S011403              STORAGE      4.45     4.58   728.18     0  14:51        4.58
  S011407              STORAGE      3.37     3.47   734.79     0  17:32        3.47
  S012400              STORAGE      0.00     0.93   728.85     0  12:40        0.92
  S012401              STORAGE      0.01     0.69   730.19     0  13:26        0.69
  S012403              STORAGE      1.22     1.44   728.00     0  14:13        1.44
  S012404              STORAGE      1.64     1.97   728.10     0  14:29        1.95
  S012405              STORAGE      1.53     1.59   729.39     0  13:37        1.59
  S012448              STORAGE      0.14     1.18   728.74     0  13:55        1.18
  S012450              STORAGE      1.93     1.98   727.84     0  21:01        1.98
  
  
  *******************
  Node Inflow Summary
  *******************
  
  -------------------------------------------------------------------------------------------------
                                  Maximum  Maximum                  Lateral       Total        Flow
                                  Lateral    Total  Time of Max      Inflow      Inflow     Balance
                                   Inflow   Inflow   Occurrence      Volume      Volume       Error
  Node                 Type           CFS      CFS  days hr:min    10^6 gal    10^6 gal     Percent
  -------------------------------------------------------------------------------------------------
  S004400              JUNCTION    118.86   118.86     0  12:44        1.82        3.77      -0.131
  S004401              JUNCTION    249.12   249.12     0  12:44         4.3        4.36      -0.989
  S004403              JUNCTION     86.15   164.68     0  12:44         1.3        5.07      -0.205
  S004406              JUNCTION      0.00    28.34     0  12:56           0        1.14      -0.001
  S004407              JUNCTION      0.00   109.89     0  12:36           0        1.22       1.913
  S004408              JUNCTION      0.00    49.07     0  13:25           0        6.22       0.009
  S004410              JUNCTION      0.00    49.04     0  13:26           0        6.21       0.002
  S004411              JUNCTION      0.00    49.04     0  13:27           0        6.21       0.003
  S005016              JUNCTION     14.37    14.37     0  12:44       0.193       0.202       0.438
  S005028              JUNCTION      0.00    63.94     0  12:47           0        1.14       0.062
  S005036              JUNCTION     56.22    56.22     0  12:44       0.816       0.829       0.021
  S005037              JUNCTION      0.00    56.17     0  12:44           0       0.868       1.696
  S005038A             JUNCTION     24.45    24.45     0  12:44       0.326       0.337       0.069
  S005043              JUNCTION      0.00    51.99     0  12:55           0       0.994       0.737
  S005044              JUNCTION      0.00    41.81     0  12:43           0       0.674       0.126
  S005045              JUNCTION     15.47    41.80     0  12:43       0.262       0.687       0.339
  S005046              JUNCTION     25.17    36.51     0  12:43       0.357       0.495       1.438
  S005047              JUNCTION      0.00    10.21     0  12:28           0      0.0441       1.348
  S005051              JUNCTION      7.70    15.43     0  12:27       0.103       0.156       5.849
  S005056              JUNCTION      3.49     3.49     0  12:44      0.0463      0.0659       0.278
  S005058              JUNCTION      0.00     3.48     0  12:42           0       0.101       0.799
  S005060              JUNCTION     15.93    18.38     0  12:25       0.213       0.263       2.119
  S005062              JUNCTION      0.00    13.48     0  00:00           0       0.129       1.660
  S005064              JUNCTION      0.00    18.00     0  12:51           0       0.417       0.647
  S005065              JUNCTION     25.27    25.27     0  12:44       0.409       0.414       0.126
  S005073              JUNCTION      0.00   451.29     0  00:00           0         7.9       0.263
  S005078              JUNCTION      0.00    23.50     0  12:44           0       0.313      -0.275
  S005079              JUNCTION     23.51    23.51     0  12:44       0.313       0.313       0.001
  S005081              JUNCTION      0.00    21.88     0  12:44           0       0.352       0.820
  S005082              JUNCTION     21.88    21.88     0  12:44       0.291       0.297       0.089
  S005102              JUNCTION     29.61    29.61     0  12:44       0.404       0.404      -0.005
  S005103              JUNCTION      0.00    29.60     0  12:44           0       0.404       2.852
  S005403              JUNCTION     39.64    39.64     0  12:44       0.579       0.579      -0.294
  S005404              JUNCTION     44.09   128.71     0  12:44       0.627        1.94       0.346
  S005406              JUNCTION      0.00   208.38     0  12:40           0        5.28       0.490
  S005407              JUNCTION      0.00   141.17     0  12:44           0         6.2      28.180
  S005408              JUNCTION     32.68    55.85     0  12:44       0.435        4.26       1.421
  S005409              JUNCTION     68.47    97.60     0  12:44       0.974        4.48       3.142
  S005410              JUNCTION     34.32   191.01     0  12:46       0.456        6.65      -0.129
  S005412              JUNCTION      0.00   124.12     0  12:46           0        7.54       7.833
  S005413              JUNCTION     89.32   135.33     0  12:44        1.25        5.75      15.717
  S005414              JUNCTION      0.00   181.67     0  12:46           0        6.01      15.918
  S005417              JUNCTION      0.00    71.65     0  12:47           0        1.18       1.134
  S005418              JUNCTION     17.08   125.06     0  12:47       0.228        2.16      -0.078
  S005419              JUNCTION      0.00   117.30     0  12:46           0        1.93       0.141
  S005420              JUNCTION      0.00     0.12     0  13:03           0       0.709       0.240
  S005421              JUNCTION      0.00     0.08     0  17:13           0       0.708       0.241
  S005422              JUNCTION      0.00    96.71     0  12:51           0        2.97       6.896
  S005423              JUNCTION      0.00     9.62     0  12:59           0       0.853      12.589
  S005424              JUNCTION     43.77    63.00     0  12:27       0.583        1.08       0.577
  S005425              JUNCTION      0.00    58.68     0  12:33           0       0.625       1.143
  S005426              JUNCTION     25.36    80.09     0  12:44       0.339        1.24      12.146
  S005427              JUNCTION      0.00    32.55     0  12:56           0        1.41      30.001
  S005428              JUNCTION     11.86   137.49     0  12:49       0.162        4.04       9.758
  S005429              JUNCTION      0.00    63.94     0  12:47           0         1.2       4.613
  S005430              JUNCTION      0.00   291.23     0  00:00           0        70.4       0.158
  S005431              JUNCTION      0.00   451.29     0  00:00           0       0.427       3.065
  S005432              JUNCTION      8.52   131.65     0  12:48       0.116        3.78       5.012
  S005433              JUNCTION      0.00   122.89     0  12:47           0        3.62       0.980
  S005434              JUNCTION      0.00    90.17     0  12:44           0        4.84       3.242
  S005435              JUNCTION      0.00    81.88     0  12:44           0         4.8       1.215
  S005436              JUNCTION    262.41   271.06     0  12:39        7.11        9.42      16.674
  S005437              JUNCTION      0.00   207.61     0  12:40           0        5.25       1.207
  S005438              JUNCTION     31.86   104.63     0  12:45       0.484        1.93      17.083
  S005439              JUNCTION      0.00   168.89     0  13:08           0        2.24       8.261
  S005440              JUNCTION     33.68    71.97     0  12:44       0.448        1.28       0.156
  S005441              JUNCTION     13.18   453.73     0  00:00       0.177       0.457       3.149
  S005442              JUNCTION      5.51    10.00     0  00:00      0.0736        0.37       0.154
  S005443              JUNCTION      0.00    44.69     0  00:00           0        0.37       1.499
  S005444              JUNCTION      0.00    29.89     0  00:00           0       0.166       0.840
  S005445              JUNCTION      0.00   501.62     0  00:00           0        16.8       0.447
  S005446              JUNCTION      0.00    65.09     0  00:00           0        6.51       3.603
  S005447              JUNCTION      0.00     8.08     0  12:23           0      0.0233     -35.575
  S005448              JUNCTION      0.00    15.22     0  12:22           0      0.0617      29.552
  S005451              JUNCTION      0.00    16.36     0  12:23           0       0.199       0.201
  S005452              JUNCTION     89.89    89.89     0  12:44        1.23        1.24       0.013
  S005453              JUNCTION      0.00    63.94     0  12:47           0        1.18       0.154
  S005454              JUNCTION      0.00    52.60     0  12:44           0       0.723      -1.064
  S005455              JUNCTION     52.62    52.62     0  12:44       0.723       0.723       0.036
  S005456              JUNCTION     31.63    31.63     0  12:44       0.431       0.685       0.156
  S005457              JUNCTION      0.00    45.95     0  12:55           0       0.847       0.087
  S005458              JUNCTION      0.00    51.37     0  12:55           0        1.03       0.543
  S005459              JUNCTION      0.00    46.16     0  12:55           0       0.873       0.253
  S005462              JUNCTION      0.00    80.66     0  12:38           0       0.702       0.185
  S005467              JUNCTION     24.33    24.33     0  12:44       0.324       0.332       0.131
  S005468              JUNCTION      5.82   164.04     0  00:00      0.0778        9.51       0.467
  S006008              JUNCTION      0.00   121.24     0  12:33           0         3.6      -0.225
  S006009              JUNCTION      7.89   168.64     0  12:32       0.105        4.42      -0.093
  S006057              JUNCTION     54.41    86.44     0  12:44       0.727        1.28       0.142
  S006058              JUNCTION     59.22   171.60     0  12:31        0.86        3.46      -0.043
  S006075              JUNCTION      0.00    86.62     0  12:31           0        1.66      -0.027
  S006106              JUNCTION      0.00     1.56     0  12:30           0      0.0264      14.284
  S006107              JUNCTION      8.77     8.77     0  12:44       0.174       0.174      -0.006
  S006108              JUNCTION      0.00    10.71     0  12:40           0       0.204       0.004
  S006117              JUNCTION      0.00     2.94     0  12:30           0      0.0614      11.729
  S006118              JUNCTION      0.00     9.52     0  12:44           0        0.57       6.855
  S006119              JUNCTION     33.67    33.67     0  12:44       0.493       0.674      11.447
  S006400              JUNCTION      0.00    18.73     0  12:44           0       0.294       0.798
  S006403              JUNCTION     47.73   138.42     0  12:31       0.634        2.68      -0.008
  S006404              JUNCTION      0.00   782.35     0  12:33           0        22.9      -0.008
  S006405              JUNCTION     25.53    25.53     0  12:44       0.341       0.341       2.526
  S006406              JUNCTION      0.00   789.77     0  12:55           0        22.9      -0.010
  S006408              JUNCTION     45.51   260.76     0  12:32       0.622         5.5      -0.014
  S006409              JUNCTION     40.72    40.72     0  12:44       0.556        1.24       9.761
  S006411              JUNCTION      0.00    85.71     0  13:33           0        2.43      -0.135
  S006412              JUNCTION     52.04   157.73     0  12:31       0.705        3.07       0.041
  S006413              JUNCTION     43.97   136.44     0  12:30       0.592        3.58      -0.159
  S006415              JUNCTION    120.22   192.33     0  12:43        1.85        5.46      -0.152
  S006416              JUNCTION     32.54   218.98     0  12:44       0.452        5.94       0.064
  S006417              JUNCTION      0.00   219.63     0  12:45           0        6.02      -0.073
  S006418              JUNCTION      0.00   312.05     0  12:34           0        7.59       0.047
  S006419              JUNCTION      0.00   305.69     0  12:33           0         7.6      -0.003
  S006420              JUNCTION      0.00   711.05     0  12:33           0        21.7       0.020
  S006421              JUNCTION     77.13   394.19     0  12:44        1.18        9.17       0.035
  S006422              JUNCTION      0.00   783.63     0  12:33           0        22.9      -0.003
  S006423              JUNCTION     36.82   171.38     0  12:44       0.507        3.56      -0.040
  S006424              JUNCTION      0.00    88.78     0  12:31           0        2.15      -0.038
  S006425              JUNCTION      0.00   145.73     0  12:44           0        4.42      -0.026
  S006426              JUNCTION     78.76   186.67     0  12:32        1.18        4.31      -0.045
  S006427              JUNCTION     43.91   308.56     0  12:33       0.602        7.58      -0.078
  S006428              JUNCTION     28.53    96.50     0  12:30       0.384        1.49      -0.214
  S006429              JUNCTION     37.84    76.09     0  12:30       0.507        1.15       0.069
  S006430              JUNCTION     50.51    50.51     0  12:44       0.698       0.764       0.027
  S006431              JUNCTION     26.74    39.56     0  12:44       0.358       0.525      -0.026
  S006432              JUNCTION      6.87    10.36     0  12:30      0.0917      0.0923      -0.383
  S006433              JUNCTION      0.00    18.81     0  12:44           0       0.144      -0.153
  S006434              JUNCTION    116.69   116.69     0  12:44        1.85        1.98       0.053
  S006435              JUNCTION      0.00   137.44     0  12:31           0         2.6       0.020
  S006436              JUNCTION      0.00    35.45     0  12:44           0       0.426      -0.287
  S006437              JUNCTION      0.00   137.94     0  12:31           0         2.6      -0.004
[...]
  1827.1                      0.52      0.52      0.53      0.01         0.01
  1828.1                      0.52      0.52      0.53      0.49         0.47
  1829.1                      0.51      0.51      0.52      0.05         0.01
  1829.2                      0.01      0.39      0.01      0.01         0.01
  1830.1                      0.50      0.50      0.51      0.01         0.01
  1830.2                      0.32      0.32      0.39      0.01         0.01
  1831.1                      0.50      0.52      0.50      0.52         0.51
  1831.2                      0.01      0.01      0.36      0.01         0.01
  1832.1                      0.50      0.50      0.52      0.45         0.01
  1833.1                      0.48      0.48      0.50      0.45         0.01
  1834.1                      0.47      0.47      0.48      0.46         0.45
  1835.1                      0.36      0.36      0.47      0.01         0.01
  1836.1                      0.36      0.53      0.36      0.52         0.51
  1838.1                      1.75      1.76      1.75      2.50         1.53
  1839.1                      1.21      1.21      1.56      0.01         0.01
  1840.1                      0.48      0.58      0.48      0.56         0.13
  1845.1                      0.01      1.76      0.01      1.77         1.64
  1847.1                      1.08      1.08      1.10      0.03         0.11
  1847.2                      0.25      0.25      0.30      0.01         0.01
  1858.1                      1.06      1.06      1.08      0.10         0.10
  1858.2                      0.20      0.20      0.25      0.01         0.01
  1862.1                      1.76      1.76      1.76      1.77         1.73
  BRMC(09)                    0.01      0.28      0.01      0.01         0.01
  CHL1(01)                    0.43      0.43      1.52      0.01         0.01
  CHL1(02)                    0.28      0.28      0.51      0.01         0.01
  CHL2(14)                    1.92      1.92      2.12      0.01         0.01
  CHL2(15)                    0.01      0.01      0.04      0.01         0.01
  CHL2(20)                    0.37      0.37      0.41      0.01         0.01
  CHL2(21)                    0.85      0.85      1.09      0.01         0.01
  CHL2-3(01)                  1.89      1.89      2.06      1.44         1.20
  CHL2-3(02)                  0.01      0.01      1.03      0.01         0.01
  CHL2-3(03)                  0.07      0.67      0.64      0.32         0.61
  CHL2-3(04)                  0.65      0.65      0.67      0.32         0.53
  CHL2-4(01)                  1.81      1.81      2.26      0.01         0.08
  CHL2-5(01)                  1.65      1.65      2.37      0.01         0.01
  CHL2-5(02)                  1.19      1.19      1.65      0.01         0.01
  CHL3(01)                    1.01      1.01      1.11      0.02         0.03
  CHL3(02)                    0.61      0.61      0.89      0.01         0.01
  CHL3(03)                    0.73      0.73      0.85      0.01         0.01
  CHL3(04)                    0.65      0.65      0.73      0.01         0.01
  CHL3(05)                    0.52      0.52      0.65      0.01         0.01
  CHL3(06)                    0.54      0.54      0.61      0.03         0.01
  CHL3(07)                    0.44      0.44      0.54      0.05         0.01
  CHL3(10)                    0.41      0.41      0.52      0.01         0.01
  CHL3(11)                    0.43      0.43      0.49      0.01         0.01
  CHL3(12)                    0.52      0.66      0.52      0.53         0.11
  CHL3(13)                    0.92      1.07      0.92      1.21         1.01
  CHL3(14)                    0.96      0.96      1.07      0.29         0.27
  CHL3(15)                    0.86      0.86      0.96      0.29         0.28
  CHL3(16)                    0.55      0.55      0.86      0.01         0.01
  CHL3(17)                    0.55      0.55      0.55      0.62         0.53
  CHL3(20)                    0.55      0.55      0.55      0.64         0.53
  CHL3(21)                    0.70      0.72      0.73      0.71         0.65
  CHL3(22)                    0.70      0.72      0.72      0.72         0.67
  CHL3(23)                    0.82      0.82      0.85      0.37         0.25
  CHL3(24)                    0.80      0.80      0.82      0.69         0.66
  CHL3-1(01)                  0.82      0.82      0.95      0.01         0.01
  CHL3-1(02)                  0.48      0.48      0.82      0.01         0.01
  CHL3-1(03)                  0.85      0.94      0.95      0.40         0.31
  CHL3-1(04)                  0.94      0.96      0.94      1.00         0.91
  CHL3-1(05)                  0.90      0.90      0.96      0.01         0.01
  CHL3-1(06)                  0.87      0.87      0.90      0.01         0.01
  CHL3-1(07)                  0.90      0.96      0.90      0.64         0.55
  CHL3-1(08)                  0.92      0.92      0.96      0.03         0.02
  CHL3-1(09)                  1.12      1.12      1.13      0.81         0.77
  CHL3-2(01)                  1.01      1.01      1.07      0.83         0.81
  CHL4(01)                    0.85      0.85      1.21      0.01         0.01
  CHL4(02)                    0.77      0.77      0.85      0.01         0.01
  CHL4(03)                    0.69      0.75      0.77      0.14         0.04
  CHL4(04)                    0.81      0.81      0.92      0.14         0.12
  CHL4(05)                    0.82      0.82      0.88      0.36         0.35
  CHL4(06)                    0.68      0.68      0.84      0.01         0.01
  CHL5(01)                    0.63      0.63      0.64      0.02         0.02
  CHL5(02)                    0.62      0.62      0.63      0.05         0.02
  CHL5(03)                    0.64      0.65      0.65      0.06         0.02
  CHL5(04)                    0.69      0.69      0.70      0.09         0.04
  CHL5(05)                    0.69      0.69      0.69      0.09         0.05
  CHL5(06)                    0.67      0.67      0.69      0.01         0.01
  CHL5(07)                    0.77      0.78      0.82      0.42         0.40
  CHL5(10)                    0.76      0.76      0.99      0.24         0.01
  CHL5(11)                    0.72      0.74      0.85      0.11         0.08
  CHL5-1(01)                  1.38      1.38      1.40      0.72         0.61
  CHL5-1(02)                  0.01      0.01      0.59      0.01         0.01
  CHL5-2(01)                  1.28      1.28      1.31      0.85         0.71
  CHL5-2(02)                  0.20      0.20      0.54      0.01         0.01
  CHL5-3(01)                  0.67      0.67      0.99      0.01         0.01
  CHL5-3(02)                  0.54      0.54      0.67      0.01         0.01
  CHL6(01)                    1.17      1.19      1.24      0.68         0.64
  CHL7(01)                    0.83      0.83      0.86      0.08         0.09
  CHL7(02)                    0.64      0.64      0.83      0.01         0.01
  CHL7(03)                    0.73      0.78      0.79      0.24         0.19
  CHL8(01)                    0.86      0.86      0.91      0.01         0.01
  CHL9(01)                    0.95      0.96      0.95      0.98         0.93
  CHMC(01)                    0.01      0.71      0.01      0.85         0.54
  CHMC(02)                    0.01      0.01      0.01      0.62         0.01
  CHMC(03)                    0.02      0.30      0.03      0.41         0.23
  CHMC(04)                    0.30      0.33      0.30      0.41         0.31
  CHMC(05)                    0.33      0.39      0.33      1.52         0.34
  CHMC(06)                    0.39      0.73      0.39      1.49         0.55
  CHMC(07)                    0.65      0.65      0.73      0.01         0.03
  CHMC(10)                    0.63      0.63      0.65      0.01         0.02
  CHMC(11)                    0.54      0.54      0.63      0.01         0.03
  CHMC(12)                    0.60      0.60      0.69      0.01         0.02
  CHMC(13)                    0.53      0.53      0.60      0.01         0.01
  CHMC(14)                    0.80      0.80      0.87      0.03         0.01
  CHMC(15)                    0.87      0.87      0.93      0.04         0.01
  CHMC(16)                    0.95      0.95      1.08      0.01         0.01
  CHMC(17)                    0.83      0.83      0.95      0.01         0.01
  CHMC(18)                    0.67      0.67      0.83      0.01         0.01
  CHMC(19)                    0.63      0.63      0.67      0.01         0.01
  CHMC(20)                    0.65      0.65      0.69      0.09         0.01
  CHMC(21)                    0.94      0.94      0.96      0.16         0.14
  CHMC(22)                    0.91      0.91      0.94      0.16         0.15
  CHMC(23)                    0.91      0.91      0.95      0.29         0.26
  CHMC(24)                    0.83      0.83      0.95      0.01         0.01
  CHMC(25)                    0.85      0.89      0.88      0.72         0.68
  HAL1(01)                    0.01      0.01      0.59      0.01         0.01
  HAL2(02)                    0.01      2.12      0.01      2.24         1.73
  HAL2(03)                    0.01      0.01      2.77      0.01         0.01
  HAL2(04)                    0.39      0.39      2.04      0.01         0.01
  HAL2(05)                    0.29      2.22      0.39      2.41         0.47
  HAL2(06)                    2.19      2.48      2.22      2.46         2.22
  HAL2-1(01)                  0.01      0.01      0.01      2.29         0.01
  HAL2-1(02)                  0.01      0.28      0.01      0.01         0.01
  HAL2-1(03)                  0.80      0.93      0.80      1.15         0.62
  HAL2-1(04)                  0.91      0.91      0.93      0.54         0.54
  HAL2-1(05)                  0.91      1.19      0.91      1.47         1.03
  HAL2-1(06)                  0.70      1.23      1.19      5.33         0.45
  HAL3(04)                    0.01      0.01      0.01      0.10         0.01
  HAL4(01)                    0.01      0.09      0.01      0.01         0.01
  HAL4(04)                    0.73      0.73      0.96      0.01         0.01
  HAL4(08)                    0.26      0.26      0.53      0.01         0.01
  HAL4-1(01)                  0.66      0.66      1.20      0.01         0.01
  HAL5-1(01)                  0.01      0.01      0.01      0.08         0.01
  HAL5-1(02)                  0.01      0.23      0.01      0.31         0.19
  HAL7(02)                    0.01      0.01    446.00      0.01         0.01
  HAMC(02)                    0.01      0.01      0.01      5.16         0.01
  HAMC(03)                    0.01      0.01      0.01      4.31         0.01
  HAMC(04)                    1.80      1.80      3.17      0.01         0.01
  HAMC(05)                    1.09      1.30      1.80      0.19         0.01
  HAMC(06)                    1.03      1.04      1.30      0.99         1.00
  HAMC(07)                    0.01      0.01      1.04      0.01         0.01
  HAMC(13)                    0.01      0.01      0.01      1.64         0.01
  HAMC(15)                    0.01      0.01      0.01      1.65         0.01
  HAMC(26)                    0.01      0.01      0.08      0.01         0.01
  HAMC(27)                    0.01      0.02      0.01      0.03         0.01
  HAMC(30)                    0.01      0.01     34.48      0.01         0.01
  HAMC(33)                    0.01      0.75      0.01      1.59         0.54
  HAMC(34)                    0.01      0.01      0.28      0.01         0.01
  HPL1(06)                    0.01      1.24      0.01      1.33         1.13
  HPL1(07)                    1.18      1.19      1.24      1.11         1.07
  HPL1(08)                    1.16      1.18      1.19      1.12         1.09
  HPL1(09)                    1.17      1.18      1.18      1.12         1.09
  HPL1(10)                    1.15      1.17      1.18      1.12         1.09
  HPL1(11)                    1.14      1.14      1.17      0.48         0.01
  HPL1(12)                    1.09      1.09      1.14      0.95         0.95
  HPL1(13)                    1.09      1.10      1.09      1.08         1.02
  HPL1(14)                    1.08      1.08      1.10      0.87         0.48
  HPL1-1(01)                  0.01      0.01      0.01      0.22         0.01
  HPL1-1(02)                  0.01      0.01      0.01      0.23         0.01
  HPL1-1(03)                  0.01      0.01      0.01      0.23         0.01
  HPL1-1(04)                  0.31      0.42      0.31      0.46         0.38
  HPL10-1(00)                 0.01      0.37      0.01      0.01         0.01
  HPL13(06)                   0.01      0.55      0.01      0.53         0.53
  HPL13-1(01)                 0.55      0.55      0.57      0.27         0.01
  HPL9(01)                    0.48      0.49      0.48      0.67         0.48
  HPL9(02)                    0.49      0.52      0.49      0.67         0.51
  HPMC(09)                    1.47      1.47      1.59      0.01         0.01
  HPMC(11)                    0.01      0.01      0.88      0.01         0.01
  HPMC(14)                    1.84      1.84      1.85      1.80         1.78
  HPMC(15A)                   0.32      0.32    446.65      0.01         0.01
  HTL2(05)                    0.01      0.01      0.62      0.92         0.01
  HTL3(02)                    0.01      0.40      0.01      0.26         0.19
  HTL4(01)                    0.33      0.33      0.45      0.01         0.02
  HTL4(02)                    0.01      0.01      8.87      0.01         0.01
  HTL5(01)                    6.37      6.37      7.43      0.01         0.01
  HTL5(02)                    0.13      0.16      1.63      0.06         0.02
  HTL5(03)                    0.01      0.01      0.01      0.32         0.01
  HTL5(08)                    0.31      1.16      0.31      1.22         0.84
  HTL5(09)                    1.16      1.17      1.16      0.88         0.79
  HTL5(10)                    1.16      1.17      1.17      0.87         0.80
  HTL5-1(05)                  0.01      0.01      0.01      0.50         0.01
  HTL5-4(01)                  0.68      0.68      0.73      0.01         0.01
  HTL5-5(01)                  1.11      1.11      1.16      0.01         0.01
  HTL5-5(02)                  0.40      0.40      1.11      0.01         0.01
  HTMC(02)                    0.01      1.19      0.01      0.98         0.55
  HTMC(04)                    0.01      0.95      0.01      0.69         0.38
  HTMC(05)                    0.01      0.21      0.01      0.01         0.01
  HTMC(06)                    0.01      0.01      1.31      0.01         0.01
  HTMC(07)                    7.43      7.43    446.52      0.28         0.01
  HTMC(10)                  446.42    446.64    446.42      0.88         0.86
  HTMC(11)                  446.66    446.67    446.66      1.00         0.98
  HTMC(12)                  446.67    446.67    446.67      0.77         0.79
  HTMC(13)                  446.67    446.67    446.67      0.12         0.17
  UAL1(01)                    0.01      0.01    446.22      0.01         0.01
  UAL1(02)                    0.01      0.50      0.01      0.01         0.01
  UAL1(03)                    0.01      0.01      0.01      0.29         0.01
  UAL1(04)                    0.47      0.47      0.51      0.01         0.01
  UAL1(05)                    0.44      0.44      0.47      0.01         0.01
  UAL1(06)                    0.43      0.43      0.44      0.01         0.01
  UAL1(07)                    0.42      0.44      0.43      0.01         0.17
  UAL1(10)                    0.01      0.01      0.25      0.01         0.01
  UAL1(11)                    0.17      0.17      0.39      0.09         0.13
  UAL1(12)                    0.39      0.39      0.45      0.01         0.01
  UAL1-1(01)                  1.55      1.55      1.78      0.40         0.25
  UAL1-1(02)                  1.26      1.27      1.55      0.27         0.25
  UAL2(01)                    0.01      0.01    446.24      0.01         0.01
  UAL2(02)                    0.01      0.01      0.01      0.28         0.01
  UAL2(03)                    0.47      0.49      0.47      0.58         0.46
  UAL2(04)                    0.49      0.53      0.49      0.58         0.51
  UAL3(01)                  457.95    457.95    457.96     13.97         5.98
  UAL3(02)                  446.65    446.65    446.75      0.01         0.01
  UAL3(03)                  446.64    446.64    446.65      0.01         0.01
  UAL3(04)                  446.64    446.64    446.64      0.77         0.77
  UAL4(01)                    0.01      0.01    446.31      0.01         0.01
  UAL4(04)                  446.42    446.57    446.42    446.58       445.89
  UAL4(06)                  446.56    446.68    446.56    446.68       446.67
  UAL4(07)                  268.24    268.24    423.30      0.01         0.01
  UAL4(08)                  261.27    261.27    268.24      0.01         0.01
  UAL4(09)                  241.93    241.93    336.72      0.01         0.01
  UAL4-2(01)                  1.20      1.20      1.86      0.01         0.01
  UAL4-2(02)                446.50    446.50    446.50      0.60         1.25
  UAL4-2(03)                  0.01      0.01      0.01      0.01         0.01
  UAL4-2(04)                398.05    398.06    408.76      0.38         0.27
  UAL4-2(05)                277.93    277.93    398.06      0.01         0.01
  UAL4-2(06)                296.22    296.22    338.25      0.01         0.01
  UAL4-3(01)                 82.11     82.52    133.63      0.48         0.49
  UAL5(02)                  446.61    446.61    446.62      0.01         0.05
  UAL5(03)                  446.61    446.61    446.62      0.01         0.04
  UAL5(04)                  446.61    446.61    446.61      0.01         0.02
  UAL5(05)                  446.61    446.61    446.61      0.36         0.02
  UAL5-1(01)                446.61    446.61    446.61      0.01         0.01
  UAL6(03)                  458.99    459.00    458.99      0.01        25.29
  UAL6(04)                  458.99    458.99    459.00      0.01        36.22
  UAL6(05)                    0.01      0.01      0.01      0.25         0.01
  UAL6-1(01)                458.99    458.99    459.00      0.01         6.31
  UAL6-1(02)                458.99    458.99    459.00      0.01         0.01
  UAL6-1(03)                458.99    458.99    459.00      0.01         0.01
  UAL6-1(04)                444.19    444.19    458.99      0.01         0.01
  UAL6-1(05)                440.63    440.63    444.19      0.01         0.01
  UAL6-3(01)                454.56    454.56    459.00      0.40       228.29
  UAL6-3(02)                456.69    456.69    458.99      0.01         0.01
  UAL6-4(01)                458.99    458.99    459.00      0.01         0.92
  UAL6-4(02)                  0.01      0.01      0.01      0.01         0.01
  UAL6-5(01)                453.14    453.14    459.00      0.01         6.87
  UAL6-5(02)                  0.01      0.01    451.67      0.01         0.01
  UAL7(02)                    0.01      0.01    446.40      0.01         0.01
  UAL8(07)                    0.01      0.36      0.01      0.40         0.20
  UAMC(22)                  446.50    446.67    446.50      1.94         2.37
  UAMC(23)                  446.59    446.59    446.67      1.14         0.93
  UAMC(24)                  446.57    446.57    446.59      1.13         1.11
  UAMC(25)                  446.55    446.55    446.57      1.12         0.86
  UAMC(26)                    0.09      0.09    446.54      0.01         0.01
  UAMC(27)                    0.15      0.61      0.61      0.34         0.28
  

  Analysis begun on:  Tue Dec 10 11:28:03 2019
  Analysis ended on:  Tue Dec 10 11:36:01 2019
  Total elapsed time: 00:07:58