
  EPA STORM WATER MANAGEMENT MODEL - VERSION 5.1 (Build 5.1.013)
  --------------------------------------------------------------

  WARNING 04: minimum elevation drop used for Conduit 1838.1
  WARNING 04: minimum elevation drop used for Conduit HAL2-1(01)
  WARNING 04: minimum elevation drop used for Conduit HAL2-1(06)
  WARNING 04: minimum elevation drop used for Conduit HAMC(02)
  WARNING 04: minimum elevation drop used for Conduit HAMC(06)
  WARNING 04: minimum elevation drop used for Conduit HPMC(06A)
  WARNING 04: minimum elevation drop used for Conduit HPMC(07)
  WARNING 04: minimum elevation drop used for Conduit L112
  WARNING 04: minimum elevation drop used for Conduit UAL1(03)
  WARNING 04: minimum elevation drop used for Conduit UAL3(01)
  WARNING 04: minimum elevation drop used for Conduit UAL6(03)
  WARNING 04: minimum elevation drop used for Conduit UAL6(04)
  WARNING 04: minimum elevation drop used for Conduit UAL6-1(01)
  WARNING 04: minimum elevation drop used for Conduit UAL6-3(01)
  WARNING 04: minimum elevation drop used for Conduit UAL6-4(01)
  WARNING 02: maximum depth increased for Node S005418
  WARNING 02: maximum depth increased for Node S005419
  WARNING 02: maximum depth increased for Node S005445
  WARNING 02: maximum depth increased for Node S012451
  WARNING 02: maximum depth increased for Node S024481
  WARNING 02: maximum depth increased for Node S024498
  
  *********************************************************
  NOTE: The summary statistics displayed in this report are
  based on results found at every computational time step,  
  not just on results from each reporting time step.
  *********************************************************
  
  ****************
  Analysis Options
  ****************
  Flow Units ............... CFS
  Process Models:
    Rainfall/Runoff ........ YES
    RDII ................... NO
    Snowmelt ............... NO
    Groundwater ............ NO
    Flow Routing ........... YES
    Ponding Allowed ........ NO
    Water Quality .......... NO
  Infiltration Method ...... HORTON
  Flow Routing Method ...... DYNWAVE
  Surcharge Method ......... SLOT
  Starting Date ............ 01/01/2004 00:00:00
  Ending Date .............. 01/20/2004 03:00:00
  Antecedent Dry Days ...... 0.0
  Report Time Step ......... 00:04:00
  Wet Time Step ............ 00:01:00
  Dry Time Step ............ 00:01:00
  Routing Time Step ........ 1.00 sec
  Variable Time Step ....... YES
  Maximum Trials ........... 8
  Number of Threads ........ 1
  Head Tolerance ........... 0.001000 ft
  
  
  **************************        Volume         Depth
  Runoff Quantity Continuity     acre-feet        inches
  **************************     ---------       -------
  Total Precipitation ......         0.000         0.000
  Evaporation Loss .........         0.000         0.000
  Infiltration Loss ........         0.000         0.000
  Surface Runoff ...........         0.000         0.000
  Final Storage ............         0.000         0.000
  Continuity Error (%) .....         0.000
  
  
  **************************        Volume        Volume
  Flow Routing Continuity        acre-feet      10^6 gal
  **************************     ---------     ---------
  Dry Weather Inflow .......         0.000         0.000
  Wet Weather Inflow .......         0.000         0.000
  Groundwater Inflow .......         0.000         0.000
  RDII Inflow ..............         0.000         0.000
  External Inflow ..........         0.000         0.000
  External Outflow .........         0.000         0.000
  Flooding Loss ............         0.000         0.000
  Evaporation Loss .........         0.000         0.000
  Exfiltration Loss ........         0.000         0.000
  Initial Stored Volume ....        30.669         9.994
  Final Stored Volume ......        30.669         9.994
  Continuity Error (%) .....         0.000
  
  
  ***************************
  Time-Step Critical Elements
  ***************************
  None
  
  
  ********************************
  Highest Flow Instability Indexes
  ********************************
  All links are stable.
  
  
  ***************************
  Subcatchment Runoff Summary
  ***************************
  
  ------------------------------------------------------------------------------------------------------------------------------
                            Total      Total      Total      Total     Imperv       Perv      Total       Total     Peak  Runoff
                           Precip      Runon       Evap      Infil     Runoff     Runoff     Runoff      Runoff   Runoff   Coeff
  Subcatchment                 in         in         in         in         in         in         in    10^6 gal      CFS
  ------------------------------------------------------------------------------------------------------------------------------
  S004400#1                  0.00       0.00       0.00       0.00       0.00       0.00       0.00        0.00     0.00   0.000
  S004400#2                  0.00       0.00       0.00       0.00       0.00       0.00       0.00        0.00     0.00   0.000
  S004401#1                  0.00       0.00       0.00       0.00       0.00       0.00       0.00        0.00     0.00   0.000
  S004403#1                  0.00       0.00       0.00       0.00       0.00       0.00       0.00        0.00     0.00   0.000
  S004405#1                  0.00       0.00       0.00       0.00       0.00       0.00       0.00        0.00     0.00   0.000
  S005016#1                  0.00       0.00       0.00       0.00       0.00       0.00       0.00        0.00     0.00   0.000
  S005036#1                  0.00       0.00       0.00       0.00       0.00       0.00       0.00        0.00     0.00   0.000
  S005038A#1                 0.00       0.00       0.00       0.00       0.00       0.00       0.00        0.00     0.00   0.000
  S005045#1                  0.00       0.00       0.00       0.00       0.00       0.00       0.00        0.00     0.00   0.000
  S005046#1                  0.00       0.00       0.00       0.00       0.00       0.00       0.00        0.00     0.00   0.000
  S005051#1                  0.00       0.00       0.00       0.00       0.00       0.00       0.00        0.00     0.00   0.000
  S005056#1                  0.00       0.00       0.00       0.00       0.00       0.00       0.00        0.00     0.00   0.000
  S005060#1                  0.00       0.00       0.00       0.00       0.00       0.00       0.00        0.00     0.00   0.000
  S005065#1                  0.00       0.00       0.00       0.00       0.00       0.00       0.00        0.00     0.00   0.000
  S005079#1                  0.00       0.00       0.00       0.00       0.00       0.00       0.00        0.00     0.00   0.000
  S005082#1                  0.00       0.00       0.00       0.00       0.00       0.00       0.00        0.00     0.00   0.000
  S005102#1                  0.00       0.00       0.00       0.00       0.00       0.00       0.00        0.00     0.00   0.000
  S005401#1                  0.00       0.00       0.00       0.00       0.00       0.00       0.00        0.00     0.00   0.000
  S005403#1                  0.00       0.00       0.00       0.00       0.00       0.00       0.00        0.00     0.00   0.000
  S005404#1                  0.00       0.00       0.00       0.00       0.00       0.00       0.00        0.00     0.00   0.000
  S005404#2                  0.00       0.00       0.00       0.00       0.00       0.00       0.00        0.00     0.00   0.000
  S005408#1                  0.00       0.00       0.00       0.00       0.00       0.00       0.00        0.00     0.00   0.000
  S005408#2                  0.00       0.00       0.00       0.00       0.00       0.00       0.00        0.00     0.00   0.000
  S005409#1                  0.00       0.00       0.00       0.00       0.00       0.00       0.00        0.00     0.00   0.000
  S005409#2                  0.00       0.00       0.00       0.00       0.00       0.00       0.00        0.00     0.00   0.000
  S005410#1                  0.00       0.00       0.00       0.00       0.00       0.00       0.00        0.00     0.00   0.000
  S005411#1                  0.00       0.00       0.00       0.00       0.00       0.00       0.00        0.00     0.00   0.000
  S005413#1                  0.00       0.00       0.00       0.00       0.00       0.00       0.00        0.00     0.00   0.000
  S005413#2                  0.00       0.00       0.00       0.00       0.00       0.00       0.00        0.00     0.00   0.000
  S005418#1                  0.00       0.00       0.00       0.00       0.00       0.00       0.00        0.00     0.00   0.000
  S005424#1                  0.00       0.00       0.00       0.00       0.00       0.00       0.00        0.00     0.00   0.000
  S005426#1                  0.00       0.00       0.00       0.00       0.00       0.00       0.00        0.00     0.00   0.000
  S005428#1                  0.00       0.00       0.00       0.00       0.00       0.00       0.00        0.00     0.00   0.000
  S005432#1                  0.00       0.00       0.00       0.00       0.00       0.00       0.00        0.00     0.00   0.000
  S005436#1                  0.00       0.00       0.00       0.00       0.00       0.00       0.00        0.00     0.00   0.000
  S005436#2                  0.00       0.00       0.00       0.00       0.00       0.00       0.00        0.00     0.00   0.000
  S005436#3                  0.00       0.00       0.00       0.00       0.00       0.00       0.00        0.00     0.00   0.000
  S005438#1                  0.00       0.00       0.00       0.00       0.00       0.00       0.00        0.00     0.00   0.000
  S005440#1                  0.00       0.00       0.00       0.00       0.00       0.00       0.00        0.00     0.00   0.000
  S005441#1                  0.00       0.00       0.00       0.00       0.00       0.00       0.00        0.00     0.00   0.000
  S005442#1                  0.00       0.00       0.00       0.00       0.00       0.00       0.00        0.00     0.00   0.000
  S005452#1                  0.00       0.00       0.00       0.00       0.00       0.00       0.00        0.00     0.00   0.000
  S005455#1                  0.00       0.00       0.00       0.00       0.00       0.00       0.00        0.00     0.00   0.000
  S005456#1                  0.00       0.00       0.00       0.00       0.00       0.00       0.00        0.00     0.00   0.000
  S005467#1                  0.00       0.00       0.00       0.00       0.00       0.00       0.00        0.00     0.00   0.000
  S005468#1                  0.00       0.00       0.00       0.00       0.00       0.00       0.00        0.00     0.00   0.000
  S006009#1                  0.00       0.00       0.00       0.00       0.00       0.00       0.00        0.00     0.00   0.000
  S006057#1                  0.00       0.00       0.00       0.00       0.00       0.00       0.00        0.00     0.00   0.000
  S006058#1                  0.00       0.00       0.00       0.00       0.00       0.00       0.00        0.00     0.00   0.000
  S006107#1                  0.00       0.00       0.00       0.00       0.00       0.00       0.00        0.00     0.00   0.000
  S006107#2                  0.00       0.00       0.00       0.00       0.00       0.00       0.00        0.00     0.00   0.000
  S006119#1                  0.00       0.00       0.00       0.00       0.00       0.00       0.00        0.00     0.00   0.000
  S006403#1                  0.00       0.00       0.00       0.00       0.00       0.00       0.00        0.00     0.00   0.000
  S006405#1                  0.00       0.00       0.00       0.00       0.00       0.00       0.00        0.00     0.00   0.000
  S006408#1                  0.00       0.00       0.00       0.00       0.00       0.00       0.00        0.00     0.00   0.000
  S006409#1                  0.00       0.00       0.00       0.00       0.00       0.00       0.00        0.00     0.00   0.000
  S006412#1                  0.00       0.00       0.00       0.00       0.00       0.00       0.00        0.00     0.00   0.000
  S006413#1                  0.00       0.00       0.00       0.00       0.00       0.00       0.00        0.00     0.00   0.000
  S006415#1                  0.00       0.00       0.00       0.00       0.00       0.00       0.00        0.00     0.00   0.000
  S006416#1                  0.00       0.00       0.00       0.00       0.00       0.00       0.00        0.00     0.00   0.000
  S006421#1                  0.00       0.00       0.00       0.00       0.00       0.00       0.00        0.00     0.00   0.000
  S006423#1                  0.00       0.00       0.00       0.00       0.00       0.00       0.00        0.00     0.00   0.000
  S006426#1                  0.00       0.00       0.00       0.00       0.00       0.00       0.00        0.00     0.00   0.000
  S006427#1                  0.00       0.00       0.00       0.00       0.00       0.00       0.00        0.00     0.00   0.000
  S006428#1                  0.00       0.00       0.00       0.00       0.00       0.00       0.00        0.00     0.00   0.000
  S006429#1                  0.00       0.00       0.00       0.00       0.00       0.00       0.00        0.00     0.00   0.000
  S006430#1                  0.00       0.00       0.00       0.00       0.00       0.00       0.00        0.00     0.00   0.000
  S006431#1                  0.00       0.00       0.00       0.00       0.00       0.00       0.00        0.00     0.00   0.000
  S006432#1                  0.00       0.00       0.00       0.00       0.00       0.00       0.00        0.00     0.00   0.000
  S006434#1                  0.00       0.00       0.00       0.00       0.00       0.00       0.00        0.00     0.00   0.000
  S006434#2                  0.00       0.00       0.00       0.00       0.00       0.00       0.00        0.00     0.00   0.000
  S006445#1                  0.00       0.00       0.00       0.00       0.00       0.00       0.00        0.00     0.00   0.000
  S006446#1                  0.00       0.00       0.00       0.00       0.00       0.00       0.00        0.00     0.00   0.000
  S006447#1                  0.00       0.00       0.00       0.00       0.00       0.00       0.00        0.00     0.00   0.000
  S006449#1                  0.00       0.00       0.00       0.00       0.00       0.00       0.00        0.00     0.00   0.000
  S006450#1                  0.00       0.00       0.00       0.00       0.00       0.00       0.00        0.00     0.00   0.000
  S006452#1                  0.00       0.00       0.00       0.00       0.00       0.00       0.00        0.00     0.00   0.000
  S006453#1                  0.00       0.00       0.00       0.00       0.00       0.00       0.00        0.00     0.00   0.000
  S006456#1                  0.00       0.00       0.00       0.00       0.00       0.00       0.00        0.00     0.00   0.000
  S006457#1                  0.00       0.00       0.00       0.00       0.00       0.00       0.00        0.00     0.00   0.000
  S006460#1                  0.00       0.00       0.00       0.00       0.00       0.00       0.00        0.00     0.00   0.000
  S006467#1                  0.00       0.00       0.00       0.00       0.00       0.00       0.00        0.00     0.00   0.000
  S006471#1                  0.00       0.00       0.00       0.00       0.00       0.00       0.00        0.00     0.00   0.000
  S006471#2                  0.00       0.00       0.00       0.00       0.00       0.00       0.00        0.00     0.00   0.000
  S007400#1                  0.00       0.00       0.00       0.00       0.00       0.00       0.00        0.00     0.00   0.000
  S009059#1                  0.00       0.00       0.00       0.00       0.00       0.00       0.00        0.00     0.00   0.000
  S009063#1                  0.00       0.00       0.00       0.00       0.00       0.00       0.00        0.00     0.00   0.000
  S009400#1                  0.00       0.00       0.00       0.00       0.00       0.00       0.00        0.00     0.00   0.000
  S010004#1                  0.00       0.00       0.00       0.00       0.00       0.00       0.00        0.00     0.00   0.000
  S010029#1                  0.00       0.00       0.00       0.00       0.00       0.00       0.00        0.00     0.00   0.000
  S010036#1                  0.00       0.00       0.00       0.00       0.00       0.00       0.00        0.00     0.00   0.000
  S010051#1                  0.00       0.00       0.00       0.00       0.00       0.00       0.00        0.00     0.00   0.000
  S010075#1                  0.00       0.00       0.00       0.00       0.00       0.00       0.00        0.00     0.00   0.000
  S010400#1                  0.00       0.00       0.00       0.00       0.00       0.00       0.00        0.00     0.00   0.000
  S010401#1                  0.00       0.00       0.00       0.00       0.00       0.00       0.00        0.00     0.00   0.000
  S010403#1                  0.00       0.00       0.00       0.00       0.00       0.00       0.00        0.00     0.00   0.000
  S010405#1                  0.00       0.00       0.00       0.00       0.00       0.00       0.00        0.00     0.00   0.000
  S010406#1                  0.00       0.00       0.00       0.00       0.00       0.00       0.00        0.00     0.00   0.000
  S010408#1                  0.00       0.00       0.00       0.00       0.00       0.00       0.00        0.00     0.00   0.000
  S010411#1                  0.00       0.00       0.00       0.00       0.00       0.00       0.00        0.00     0.00   0.000
  S010412#1                  0.00       0.00       0.00       0.00       0.00       0.00       0.00        0.00     0.00   0.000
  S010415#1                  0.00       0.00       0.00       0.00       0.00       0.00       0.00        0.00     0.00   0.000
  S010418#1                  0.00       0.00       0.00       0.00       0.00       0.00       0.00        0.00     0.00   0.000
  S011004#1                  0.00       0.00       0.00       0.00       0.00       0.00       0.00        0.00     0.00   0.000
  S011015#1                  0.00       0.00       0.00       0.00       0.00       0.00       0.00        0.00     0.00   0.000
  S011060#1                  0.00       0.00       0.00       0.00       0.00       0.00       0.00        0.00     0.00   0.000
  S011065#1                  0.00       0.00       0.00       0.00       0.00       0.00       0.00        0.00     0.00   0.000
  S011400#1                  0.00       0.00       0.00       0.00       0.00       0.00       0.00        0.00     0.00   0.000
  S011402#1                  0.00       0.00       0.00       0.00       0.00       0.00       0.00        0.00     0.00   0.000
  S011403#1                  0.00       0.00       0.00       0.00       0.00       0.00       0.00        0.00     0.00   0.000
  S011405#1                  0.00       0.00       0.00       0.00       0.00       0.00       0.00        0.00     0.00   0.000
  S011407#1                  0.00       0.00       0.00       0.00       0.00       0.00       0.00        0.00     0.00   0.000
  S011411#1                  0.00       0.00       0.00       0.00       0.00       0.00       0.00        0.00     0.00   0.000
  S011413#1                  0.00       0.00       0.00       0.00       0.00       0.00       0.00        0.00     0.00   0.000
  S011414#1                  0.00       0.00       0.00       0.00       0.00       0.00       0.00        0.00     0.00   0.000
  S011417#1                  0.00       0.00       0.00       0.00       0.00       0.00       0.00        0.00     0.00   0.000
  S011423#1                  0.00       0.00       0.00       0.00       0.00       0.00       0.00        0.00     0.00   0.000
  S011424#1                  0.00       0.00       0.00       0.00       0.00       0.00       0.00        0.00     0.00   0.000
  S011426#1                  0.00       0.00       0.00       0.00       0.00       0.00       0.00        0.00     0.00   0.000
  S011429#1                  0.00       0.00       0.00       0.00       0.00       0.00       0.00        0.00     0.00   0.000
  S011430#1                  0.00       0.00       0.00       0.00       0.00       0.00       0.00        0.00     0.00   0.000
  S011433#1                  0.00       0.00       0.00       0.00       0.00       0.00       0.00        0.00     0.00   0.000
  S011435#1                  0.00       0.00       0.00       0.00       0.00       0.00       0.00        0.00     0.00   0.000
  S011437#1                  0.00       0.00       0.00       0.00       0.00       0.00       0.00        0.00     0.00   0.000
  S011441#1                  0.00       0.00       0.00       0.00       0.00       0.00       0.00        0.00     0.00   0.000
  S012036#1                  0.00       0.00       0.00       0.00       0.00       0.00       0.00        0.00     0.00   0.000
  S012043#1                  0.00       0.00       0.00       0.00       0.00       0.00       0.00        0.00     0.00   0.000
  S012400#1                  0.00       0.00       0.00       0.00       0.00       0.00       0.00        0.00     0.00   0.000
  S012401#1                  0.00       0.00       0.00       0.00       0.00       0.00       0.00        0.00     0.00   0.000
  S012402#1                  0.00       0.00       0.00       0.00       0.00       0.00       0.00        0.00     0.00   0.000
  S012403#1                  0.00       0.00       0.00       0.00       0.00       0.00       0.00        0.00     0.00   0.000
  S012404#1                  0.00       0.00       0.00       0.00       0.00       0.00       0.00        0.00     0.00   0.000
  S012405#1                  0.00       0.00       0.00       0.00       0.00       0.00       0.00        0.00     0.00   0.000
  S012406#1                  0.00       0.00       0.00       0.00       0.00       0.00       0.00        0.00     0.00   0.000
  S012407#1                  0.00       0.00       0.00       0.00       0.00       0.00       0.00        0.00     0.00   0.000
  S012408#1                  0.00       0.00       0.00       0.00       0.00       0.00       0.00        0.00     0.00   0.000
  S012409#1                  0.00       0.00       0.00       0.00       0.00       0.00       0.00        0.00     0.00   0.000
  S012412#1                  0.00       0.00       0.00       0.00       0.00       0.00       0.00        0.00     0.00   0.000
  S012415#1                  0.00       0.00       0.00       0.00       0.00       0.00       0.00        0.00     0.00   0.000
  S012415#2                  0.00       0.00       0.00       0.00       0.00       0.00       0.00        0.00     0.00   0.000
  S012419#1                  0.00       0.00       0.00       0.00       0.00       0.00       0.00        0.00     0.00   0.000
  S012420#1                  0.00       0.00       0.00       0.00       0.00       0.00       0.00        0.00     0.00   0.000
  S012421#1                  0.00       0.00       0.00       0.00       0.00       0.00       0.00        0.00     0.00   0.000
  S012436#1                  0.00       0.00       0.00       0.00       0.00       0.00       0.00        0.00     0.00   0.000
  S012441#1                  0.00       0.00       0.00       0.00       0.00       0.00       0.00        0.00     0.00   0.000
  S012445#1                  0.00       0.00       0.00       0.00       0.00       0.00       0.00        0.00     0.00   0.000
  S012446#1                  0.00       0.00       0.00       0.00       0.00       0.00       0.00        0.00     0.00   0.000
  S013405#1                  0.00       0.00       0.00       0.00       0.00       0.00       0.00        0.00     0.00   0.000
  S013411#1                  0.00       0.00       0.00       0.00       0.00       0.00       0.00        0.00     0.00   0.000
  S024019#1                  0.00       0.00       0.00       0.00       0.00       0.00       0.00        0.00     0.00   0.000
  S024030A#1                 0.00       0.00       0.00       0.00       0.00       0.00       0.00        0.00     0.00   0.000
  S024042#1                  0.00       0.00       0.00       0.00       0.00       0.00       0.00        0.00     0.00   0.000
  S024065B#1                 0.00       0.00       0.00       0.00       0.00       0.00       0.00        0.00     0.00   0.000
  S024081#1                  0.00       0.00       0.00       0.00       0.00       0.00       0.00        0.00     0.00   0.000
  S024400#1                  0.00       0.00       0.00       0.00       0.00       0.00       0.00        0.00     0.00   0.000
  S024408#1                  0.00       0.00       0.00       0.00       0.00       0.00       0.00        0.00     0.00   0.000
  S024419#1                  0.00       0.00       0.00       0.00       0.00       0.00       0.00        0.00     0.00   0.000
  S024422#1                  0.00       0.00       0.00       0.00       0.00       0.00       0.00        0.00     0.00   0.000
  S024427#1                  0.00       0.00       0.00       0.00       0.00       0.00       0.00        0.00     0.00   0.000
  S024432#1                  0.00       0.00       0.00       0.00       0.00       0.00       0.00        0.00     0.00   0.000
  S024438#1                  0.00       0.00       0.00       0.00       0.00       0.00       0.00        0.00     0.00   0.000
  S024449#1                  0.00       0.00       0.00       0.00       0.00       0.00       0.00        0.00     0.00   0.000
  S024457#1                  0.00       0.00       0.00       0.00       0.00       0.00       0.00        0.00     0.00   0.000
  S024459#1                  0.00       0.00       0.00       0.00       0.00       0.00       0.00        0.00     0.00   0.000
  S024463#1                  0.00       0.00       0.00       0.00       0.00       0.00       0.00        0.00     0.00   0.000
  S024468#1                  0.00       0.00       0.00       0.00       0.00       0.00       0.00        0.00     0.00   0.000
  S024470#1                  0.00       0.00       0.00       0.00       0.00       0.00       0.00        0.00     0.00   0.000
  S024479#1                  0.00       0.00       0.00       0.00       0.00       0.00       0.00        0.00     0.00   0.000
  S024484#1                  0.00       0.00       0.00       0.00       0.00       0.00       0.00        0.00     0.00   0.000
  S024485#1                  0.00       0.00       0.00       0.00       0.00       0.00       0.00        0.00     0.00   0.000
  S024488#1                  0.00       0.00       0.00       0.00       0.00       0.00       0.00        0.00     0.00   0.000
  S024497#1                  0.00       0.00       0.00       0.00       0.00       0.00       0.00        0.00     0.00   0.000
  S024498#1                  0.00       0.00       0.00       0.00       0.00       0.00       0.00        0.00     0.00   0.000
  S025002D#1                 0.00       0.00       0.00       0.00       0.00       0.00       0.00        0.00     0.00   0.000
  S025401#1                  0.00       0.00       0.00       0.00       0.00       0.00       0.00        0.00     0.00   0.000
  S025402#1                  0.00       0.00       0.00       0.00       0.00       0.00       0.00        0.00     0.00   0.000
  S025406#1                  0.00       0.00       0.00       0.00       0.00       0.00       0.00        0.00     0.00   0.000
  S025407#1                  0.00       0.00       0.00       0.00       0.00       0.00       0.00        0.00     0.00   0.000
  S025410#1                  0.00       0.00       0.00       0.00       0.00       0.00       0.00        0.00     0.00   0.000
  S025411#1                  0.00       0.00       0.00       0.00       0.00       0.00       0.00        0.00     0.00   0.000
  S025418#1                  0.00       0.00       0.00       0.00       0.00       0.00       0.00        0.00     0.00   0.000
  S025420#1                  0.00       0.00       0.00       0.00       0.00       0.00       0.00        0.00     0.00   0.000
  S025421#1                  0.00       0.00       0.00       0.00       0.00       0.00       0.00        0.00     0.00   0.000
  S025423#1                  0.00       0.00       0.00       0.00       0.00       0.00       0.00        0.00     0.00   0.000
  S025423#2                  0.00       0.00       0.00       0.00       0.00       0.00       0.00        0.00     0.00   0.000
  
  
  ******************
  Node Depth Summary
  ******************
  
  ---------------------------------------------------------------------------------
                                 Average  Maximum  Maximum  Time of Max    Reported
                                   Depth    Depth      HGL   Occurrence   Max Depth
  Node                 Type         Feet     Feet     Feet  days hr:min        Feet
  ---------------------------------------------------------------------------------
  S004400              JUNCTION  -nan(ind)     0.00   724.00     0  00:00        0.00
  S004401              JUNCTION  -nan(ind)     0.00   727.19     0  00:00        0.00
  S004403              JUNCTION  -nan(ind)     0.00   722.00     0  00:00        0.00
  S004406              JUNCTION  -nan(ind)     0.00   725.60     0  00:00        0.00
  S004407              JUNCTION  -nan(ind)     0.00   727.00     0  00:00        0.00
  S004408              JUNCTION  -nan(ind)     0.00   717.74     0  00:00        0.00
  S004410              JUNCTION  -nan(ind)     0.00   716.50     0  00:00        0.00
  S004411              JUNCTION  -nan(ind)     0.00   716.15     0  00:00        0.00
  S005016              JUNCTION  -nan(ind)     0.00   728.96     0  00:00        0.00
  S005028              JUNCTION  -nan(ind)     0.00   728.98     0  00:00        0.00
  S005036              JUNCTION  -nan(ind)     0.00   729.83     0  00:00        0.00
  S005037              JUNCTION  -nan(ind)     0.00   729.66     0  00:00        0.00
  S005038A             JUNCTION  -nan(ind)     0.00   729.46     0  00:00        0.00
  S005043              JUNCTION  -nan(ind)     0.00   728.61     0  00:00        0.00
  S005044              JUNCTION  -nan(ind)     0.00   728.00     0  00:00        0.00
  S005045              JUNCTION  -nan(ind)     0.00   727.94     0  00:00        0.00
  S005046              JUNCTION  -nan(ind)     0.00   727.84     0  00:00        0.00
  S005047              JUNCTION  -nan(ind)     0.00   727.92     0  00:00        0.00
  S005051              JUNCTION  -nan(ind)     0.00   727.51     0  00:00        0.00
  S005056              JUNCTION  -nan(ind)     0.00   729.00     0  00:00        0.00
  S005058              JUNCTION  -nan(ind)     0.00   728.65     0  00:00        0.00
  S005060              JUNCTION  -nan(ind)     0.00   727.50     0  00:00        0.00
  S005062              JUNCTION  -nan(ind)     0.00   726.55     0  00:00        0.00
  S005064              JUNCTION  -nan(ind)     0.00   728.29     0  00:00        0.00
  S005065              JUNCTION  -nan(ind)     0.00   728.47     0  00:00        0.00
  S005073              JUNCTION  -nan(ind)     0.00   724.00     0  00:00        0.00
  S005078              JUNCTION  -nan(ind)     0.00   730.48     0  00:00        0.00
  S005079              JUNCTION  -nan(ind)     0.00   730.60     0  00:00        0.00
  S005081              JUNCTION  -nan(ind)     0.00   729.38     0  00:00        0.00
  S005082              JUNCTION  -nan(ind)     0.00   729.46     0  00:00        0.00
  S005102              JUNCTION  -nan(ind)     0.00   732.00     0  00:00        0.00
  S005103              JUNCTION  -nan(ind)     0.00   731.77     0  00:00        0.00
  S005403              JUNCTION  -nan(ind)     0.00   730.10     0  00:00        0.00
  S005404              JUNCTION  -nan(ind)     0.00   730.00     0  00:00        0.00
  S005406              JUNCTION  -nan(ind)     0.00   723.67     0  00:00        0.00
  S005407              JUNCTION  -nan(ind)     0.00   724.87     0  00:00        0.00
  S005408              JUNCTION  -nan(ind)     0.00   728.80     0  00:00        0.00
  S005409              JUNCTION  -nan(ind)     0.00   727.90     0  00:00        0.00
  S005410              JUNCTION  -nan(ind)     0.00   726.00     0  00:00        0.00
  S005412              JUNCTION  -nan(ind)     0.00   725.75     0  00:00        0.00
  S005413              JUNCTION  -nan(ind)     0.00   724.26     0  00:00        0.00
  S005414              JUNCTION  -nan(ind)     0.00   725.21     0  00:00        0.00
  S005417              JUNCTION  -nan(ind)     0.00   727.98     0  00:00        0.00
  S005418              JUNCTION  -nan(ind)     0.00   727.47     0  00:00        0.00
  S005419              JUNCTION  -nan(ind)     0.00   727.70     0  00:00        0.00
  S005420              JUNCTION  -nan(ind)     0.00   728.13     0  00:00        0.00
  S005421              JUNCTION  -nan(ind)     0.00   728.12     0  00:00        0.00
  S005422              JUNCTION  -nan(ind)     0.00   727.70     0  00:00        0.00
  S005423              JUNCTION  -nan(ind)     0.00   728.11     0  00:00        0.00
  S005424              JUNCTION  -nan(ind)     0.00   729.50     0  00:00        0.00
  S005425              JUNCTION  -nan(ind)     0.00   730.01     0  00:00        0.00
  S005426              JUNCTION  -nan(ind)     0.00   727.24     0  00:00        0.00
  S005427              JUNCTION  -nan(ind)     0.00   727.58     0  00:00        0.00
  S005428              JUNCTION  -nan(ind)     0.00   726.97     0  00:00        0.00
  S005429              JUNCTION  -nan(ind)     0.00   728.67     0  00:00        0.00
  S005430              JUNCTION  -nan(ind)     0.00   724.00     0  00:00        0.00
  S005431              JUNCTION  -nan(ind)     0.00   724.00     0  00:00        0.00
  S005432              JUNCTION  -nan(ind)     0.00   726.86     0  00:00        0.00
  S005433              JUNCTION  -nan(ind)     0.00   725.79     0  00:00        0.00
  S005434              JUNCTION  -nan(ind)     0.00   724.10     0  00:00        0.00
  S005435              JUNCTION  -nan(ind)     0.00   724.92     0  00:00        0.00
  S005436              JUNCTION  -nan(ind)     0.00   723.51     0  00:00        0.00
  S005437              JUNCTION  -nan(ind)     0.00   723.82     0  00:00        0.00
  S005438              JUNCTION  -nan(ind)     0.00   726.75     0  00:00        0.00
  S005439              JUNCTION  -nan(ind)     0.00   728.40     0  00:00        0.00
  S005440              JUNCTION  -nan(ind)     0.00   728.61     0  00:00        0.00
  S005441              JUNCTION  -nan(ind)     0.00   724.00     0  00:00        0.00
  S005442              JUNCTION  -nan(ind)     0.00   725.59     0  00:00        0.00
  S005443              JUNCTION  -nan(ind)     0.00   728.72     0  00:00        0.00
  S005444              JUNCTION  -nan(ind)     0.00   725.69     0  00:00        0.00
  S005445              JUNCTION  -nan(ind)     0.00   724.00     0  00:00        0.00
  S005446              JUNCTION  -nan(ind)     0.00   725.96     0  00:00        0.00
  S005447              JUNCTION  -nan(ind)     0.00   727.07     0  00:00        0.00
  S005448              JUNCTION  -nan(ind)     0.00   724.26     0  00:00        0.00
  S005451              JUNCTION  -nan(ind)     0.00   729.17     0  00:00        0.00
  S005452              JUNCTION  -nan(ind)     0.00   729.00     0  00:00        0.00
  S005453              JUNCTION  -nan(ind)     0.00   728.88     0  00:00        0.00
  S005454              JUNCTION  -nan(ind)     0.00   730.42     0  00:00        0.00
  S005455              JUNCTION  -nan(ind)     0.00   730.30     0  00:00        0.00
  S005456              JUNCTION  -nan(ind)     0.00   731.58     0  00:00        0.00
  S005457              JUNCTION  -nan(ind)     0.00   729.45     0  00:00        0.00
  S005458              JUNCTION  -nan(ind)     0.00   729.07     0  00:00        0.00
  S005459              JUNCTION  -nan(ind)     0.00   729.35     0  00:00        0.00
  S005462              JUNCTION  -nan(ind)     0.00   729.66     0  00:00        0.00
  S005467              JUNCTION  -nan(ind)     0.00   729.54     0  00:00        0.00
  S005468              JUNCTION  -nan(ind)     0.00   724.21     0  00:00        0.00
  S006008              JUNCTION  -nan(ind)     0.00   722.57     0  00:00        0.00
  S006009              JUNCTION  -nan(ind)     0.00   725.65     0  00:00        0.00
  S006057              JUNCTION  -nan(ind)     0.00   729.01     0  00:00        0.00
  S006058              JUNCTION  -nan(ind)     0.00   726.45     0  00:00        0.00
  S006075              JUNCTION  -nan(ind)     0.00   727.53     0  00:00        0.00
  S006106              JUNCTION  -nan(ind)     0.00   729.53     0  00:00        0.00
  S006107              JUNCTION  -nan(ind)     0.00   730.00     0  00:00        0.00
  S006108              JUNCTION  -nan(ind)     0.00   729.26     0  00:00        0.00
  S006117              JUNCTION  -nan(ind)     0.00   729.00     0  00:00        0.00
  S006118              JUNCTION  -nan(ind)     0.00   728.29     0  00:00        0.00
  S006119              JUNCTION  -nan(ind)     0.00   728.33     0  00:00        0.00
  S006400              JUNCTION  -nan(ind)     0.00   728.68     0  00:00        0.00
  S006403              JUNCTION  -nan(ind)     0.00   727.30     0  00:00        0.00
  S006404              JUNCTION  -nan(ind)     0.00   721.70     0  00:00        0.00
  S006405              JUNCTION  -nan(ind)     0.00   733.77     0  00:00        0.00
  S006406              JUNCTION  -nan(ind)     0.00   720.01     0  00:00        0.00
  S006408              JUNCTION  -nan(ind)     0.00   724.53     0  00:00        0.00
  S006409              JUNCTION  -nan(ind)     0.00   728.14     0  00:00        0.00
  S006411              JUNCTION  -nan(ind)     0.00   723.41     0  00:00        0.00
  S006412              JUNCTION  -nan(ind)     0.00   723.04     0  00:00        0.00
  S006413              JUNCTION  -nan(ind)     0.00   722.82     0  00:00        0.00
  S006415              JUNCTION  -nan(ind)     0.00   722.38     0  00:00        0.00
  S006416              JUNCTION  -nan(ind)     0.00   722.00     0  00:00        0.00
  S006417              JUNCTION  -nan(ind)     0.00   721.97     0  00:00        0.00
  S006418              JUNCTION  -nan(ind)     0.00   722.57     0  00:00        0.00
  S006419              JUNCTION  -nan(ind)     0.00   722.37     0  00:00        0.00
  S006420              JUNCTION  -nan(ind)     0.00   721.83     0  00:00        0.00
  S006421              JUNCTION  -nan(ind)     0.00   722.56     0  00:00        0.00
  S006422              JUNCTION  -nan(ind)     0.00   721.68     0  00:00        0.00
  S006423              JUNCTION  -nan(ind)     0.00   723.35     0  00:00        0.00
  S006424              JUNCTION  -nan(ind)     0.00   726.94     0  00:00        0.00
  S006425              JUNCTION  -nan(ind)     0.00   724.24     0  00:00        0.00
  S006426              JUNCTION  -nan(ind)     0.00   726.46     0  00:00        0.00
  S006427              JUNCTION  -nan(ind)     0.00   723.52     0  00:00        0.00
  S006428              JUNCTION  -nan(ind)     0.00   726.52     0  00:00        0.00
  S006429              JUNCTION  -nan(ind)     0.00   727.32     0  00:00        0.00
  S006430              JUNCTION  -nan(ind)     0.00   730.28     0  00:00        0.00
  S006431              JUNCTION  -nan(ind)     0.00   732.21     0  00:00        0.00
  S006432              JUNCTION  -nan(ind)     0.00   732.28     0  00:00        0.00
  S006433              JUNCTION  -nan(ind)     0.00   730.82     0  00:00        0.00
  S006434              JUNCTION  -nan(ind)     0.00   728.14     0  00:00        0.00
  S006435              JUNCTION  -nan(ind)     0.00   726.91     0  00:00        0.00
  S006436              JUNCTION  -nan(ind)     0.00   729.92     0  00:00        0.00
  S006437              JUNCTION  -nan(ind)     0.00   727.22     0  00:00        0.00
  S006438              JUNCTION  -nan(ind)     0.00   725.96     0  00:00        0.00
  S006440              JUNCTION  -nan(ind)     0.00   728.96     0  00:00        0.00
  S006441              JUNCTION  -nan(ind)     0.00   727.35     0  00:00        0.00
  S006442              JUNCTION  -nan(ind)     0.00   727.40     0  00:00        0.00
  S006443              JUNCTION  -nan(ind)     0.00   720.83     0  00:00        0.00
  S006444              JUNCTION  -nan(ind)     0.00   720.18     0  00:00        0.00
  S006445              JUNCTION  -nan(ind)     0.00   729.00     0  00:00        0.00
  S006446              JUNCTION  -nan(ind)     0.00   726.22     0  00:00        0.00
  S006447              JUNCTION  -nan(ind)     0.00   727.99     0  00:00        0.00
  S006449              JUNCTION  -nan(ind)     0.00   727.07     0  00:00        0.00
  S006450              JUNCTION  -nan(ind)     0.00   727.91     0  00:00        0.00
  S006452              JUNCTION  -nan(ind)     0.00   727.42     0  00:00        0.00
  S006453              JUNCTION  -nan(ind)     0.00   727.71     0  00:00        0.00
  S006455              JUNCTION  -nan(ind)     0.00   727.26     0  00:00        0.00
  S006456              JUNCTION  -nan(ind)     0.00   724.00     0  00:00        0.00
  S006457              JUNCTION  -nan(ind)     0.00   729.55     0  00:00        0.00
  S006458              JUNCTION  -nan(ind)     0.00   729.32     0  00:00        0.00
  S006459              JUNCTION  -nan(ind)     0.00   728.63     0  00:00        0.00
  S006460              JUNCTION  -nan(ind)     0.00   732.40     0  00:00        0.00
  S006463              JUNCTION  -nan(ind)     0.00   732.20     0  00:00        0.00
  S006464              JUNCTION  -nan(ind)     0.00   731.49     0  00:00        0.00
  S006466              JUNCTION  -nan(ind)     0.00   727.18     0  00:00        0.00
  S006467              JUNCTION  -nan(ind)     0.00   727.39     0  00:00        0.00
  S006468              JUNCTION  -nan(ind)     0.00   727.92     0  00:00        0.00
  S006469              JUNCTION  -nan(ind)     0.00   728.00     0  00:00        0.00
  S006470              JUNCTION  -nan(ind)     0.00   728.12     0  00:00        0.00
  S006471              JUNCTION  -nan(ind)     0.00   728.90     0  00:00        0.00
  S006472              JUNCTION  -nan(ind)     0.00   727.41     0  00:00        0.00
  S007400              JUNCTION  -nan(ind)     0.00   725.43     0  00:00        0.00
  S009059              JUNCTION  -nan(ind)     0.00   732.08     0  00:00        0.00
  S009060              JUNCTION  -nan(ind)     0.00   731.90     0  00:00        0.00
  S009061              JUNCTION  -nan(ind)     0.00   730.00     0  00:00        0.00
  S009063              JUNCTION  -nan(ind)     0.00   735.95     0  00:00        0.00
  S009400              JUNCTION  -nan(ind)     0.00   733.01     0  00:00        0.00
  S010004              JUNCTION  -nan(ind)     0.00   735.57     0  00:00        0.00
  S010005              JUNCTION  -nan(ind)     0.00   735.80     0  00:00        0.00
  S010014              JUNCTION  -nan(ind)     0.00   735.19     0  00:00        0.00
  S010016              JUNCTION  -nan(ind)     0.00   734.86     0  00:00        0.00
  S010018              JUNCTION  -nan(ind)     0.00   734.67     0  00:00        0.00
  S010027              JUNCTION  -nan(ind)     0.00   727.41     0  00:00        0.00
  S010029              JUNCTION  -nan(ind)     0.00   733.60     0  00:00        0.00
  S010034              JUNCTION  -nan(ind)     0.00   732.93     0  00:00        0.00
  S010036              JUNCTION  -nan(ind)     0.00   725.58     0  00:00        0.00
  S010038              JUNCTION  -nan(ind)     0.00   732.25     0  00:00        0.00
  S010039              JUNCTION  -nan(ind)     0.00   731.78     0  00:00        0.00
  S010040              JUNCTION  -nan(ind)     0.00   728.13     0  00:00        0.00
  S010042              JUNCTION  -nan(ind)     0.00   731.10     0  00:00        0.00
  S010047              JUNCTION  -nan(ind)     0.00   734.48     0  00:00        0.00
  S010051              JUNCTION  -nan(ind)     0.00   727.13     0  00:00        0.00
  S010052              JUNCTION  -nan(ind)     0.00   726.73     0  00:00        0.00
  S010060              JUNCTION  -nan(ind)     0.00   728.24     0  00:00        0.00
  S010067              JUNCTION  -nan(ind)     0.00   728.66     0  00:00        0.00
  S010074              JUNCTION  -nan(ind)     0.00   729.41     0  00:00        0.00
  S010075              JUNCTION  -nan(ind)     0.00   729.82     0  00:00        0.00
  S010077              JUNCTION  -nan(ind)     0.00   731.45     0  00:00        0.00
  S010400              JUNCTION  -nan(ind)     0.00   732.00     0  00:00        0.00
  S010401              JUNCTION  -nan(ind)     0.00   736.20     0  00:00        0.00
  S010402              JUNCTION  -nan(ind)     0.00   730.35     0  00:00        0.00
  S010403              JUNCTION  -nan(ind)     0.00   728.85     0  00:00        0.00
  S010404              JUNCTION  -nan(ind)     0.00   729.95     0  00:00        0.00
  S010405              JUNCTION  -nan(ind)     0.00   731.54     0  00:00        0.00
  S010406              JUNCTION  -nan(ind)     0.00   730.88     0  00:00        0.00
  S010407              JUNCTION  -nan(ind)     0.00   727.81     0  00:00        0.00
  S010408              JUNCTION  -nan(ind)     0.00   725.03     0  00:00        0.00
  S010409              JUNCTION  -nan(ind)     0.00   725.28     0  00:00        0.00
  S010410              JUNCTION  -nan(ind)     0.00   726.01     0  00:00        0.00
  S010411              JUNCTION  -nan(ind)     0.00   729.11     0  00:00        0.00
  S010412              JUNCTION  -nan(ind)     0.00   730.50     0  00:00        0.00
  S010413              JUNCTION  -nan(ind)     0.00   725.96     0  00:00        0.00
  S010415              JUNCTION  -nan(ind)     0.00   733.07     0  00:00        0.00
  S010416              JUNCTION  -nan(ind)     0.00   730.13     0  00:00        0.00
  S010418              JUNCTION  -nan(ind)     0.00   728.58     0  00:00        0.00
  S010419              JUNCTION  -nan(ind)     0.00   729.38     0  00:00        0.00
  S010421              JUNCTION  -nan(ind)     0.00   728.98     0  00:00        0.00
  S011004              JUNCTION  -nan(ind)     0.00   731.60     0  00:00        0.00
  S011005              JUNCTION  -nan(ind)     0.00   731.53     0  00:00        0.00
  S011015              JUNCTION  -nan(ind)     0.00   728.99     0  00:00        0.00
  S011060              JUNCTION  -nan(ind)     0.00   728.50     0  00:00        0.00
  S011065              JUNCTION  -nan(ind)     0.00   728.29     0  00:00        0.00
  S011068              JUNCTION  -nan(ind)     0.00   728.28     0  00:00        0.00
  S011075              JUNCTION  -nan(ind)     0.00   728.28     0  00:00        0.00
  S011077              JUNCTION  -nan(ind)     0.00   728.23     0  00:00        0.00
  S011401              JUNCTION  -nan(ind)     0.00   729.38     0  00:00        0.00
  S011404              JUNCTION  -nan(ind)     0.00   726.91     0  00:00        0.00
  S011405              JUNCTION  -nan(ind)     0.00   731.08     0  00:00        0.00
  S011408              JUNCTION  -nan(ind)     0.00   734.52     0  00:00        0.00
  S011409              JUNCTION  -nan(ind)     0.00   736.79     0  00:00        0.00
  S011410              JUNCTION  -nan(ind)     0.00   730.87     0  00:00        0.00
  S011411              JUNCTION  -nan(ind)     0.00   733.83     0  00:00        0.00
  S011412              JUNCTION  -nan(ind)     0.00   731.33     0  00:00        0.00
  S011413              JUNCTION  -nan(ind)     0.00   732.67     0  00:00        0.00
  S011414              JUNCTION  -nan(ind)     0.00   734.01     0  00:00        0.00
  S011415              JUNCTION  -nan(ind)     0.00   733.24     0  00:00        0.00
  S011416              JUNCTION  -nan(ind)     0.00   733.33     0  00:00        0.00
  S011417              JUNCTION  -nan(ind)     0.00   733.71     0  00:00        0.00
  S011418              JUNCTION  -nan(ind)     0.00   728.87     0  00:00        0.00
  S011419              JUNCTION  -nan(ind)     0.00   728.27     0  00:00        0.00
  S011421              JUNCTION  -nan(ind)     0.00   733.14     0  00:00        0.00
  S011422              JUNCTION  -nan(ind)     0.00   729.77     0  00:00        0.00
  S011423              JUNCTION  -nan(ind)     0.00   728.99     0  00:00        0.00
  S011424              JUNCTION  -nan(ind)     0.00   732.08     0  00:00        0.00
  S011425              JUNCTION  -nan(ind)     0.00   730.90     0  00:00        0.00
  S011426              JUNCTION  -nan(ind)     0.00   729.93     0  00:00        0.00
  S011428              JUNCTION  -nan(ind)     0.00   728.19     0  00:00        0.00
  S011429              JUNCTION  -nan(ind)     0.00   728.23     0  00:00        0.00
  S011430              JUNCTION  -nan(ind)     0.00   729.77     0  00:00        0.00
  S011431              JUNCTION  -nan(ind)     0.00   729.34     0  00:00        0.00
  S011432              JUNCTION  -nan(ind)     0.00   729.67     0  00:00        0.00
  S011433              JUNCTION  -nan(ind)     0.00   729.73     0  00:00        0.00
  S011434              JUNCTION  -nan(ind)     0.00   729.80     0  00:00        0.00
  S011435              JUNCTION  -nan(ind)     0.00   729.83     0  00:00        0.00
  S011437              JUNCTION  -nan(ind)     0.00   726.70     0  00:00        0.00
  S011438              JUNCTION  -nan(ind)     0.00   726.25     0  00:00        0.00
  S011439              JUNCTION  -nan(ind)     0.00   725.12     0  00:00        0.00
  S011440              JUNCTION  -nan(ind)     0.00   728.30     0  00:00        0.00
  S011441              JUNCTION  -nan(ind)     0.00   727.52     0  00:00        0.00
  S011442              JUNCTION  -nan(ind)     0.00   726.67     0  00:00        0.00
  S012018              JUNCTION  -nan(ind)     0.00   727.49     0  00:00        0.00
  S012019              JUNCTION  -nan(ind)     0.00   727.52     0  00:00        0.00
  S012035              JUNCTION  -nan(ind)     0.00   729.39     0  00:00        0.00
  S012036              JUNCTION  -nan(ind)     0.00   729.39     0  00:00        0.00
  S012037              JUNCTION  -nan(ind)     0.00   731.28     0  00:00        0.00
  S012038              JUNCTION  -nan(ind)     0.00   727.97     0  00:00        0.00
  S012040              JUNCTION  -nan(ind)     0.00   731.26     0  00:00        0.00
  S012040A             JUNCTION  -nan(ind)     0.00   726.27     0  00:00        0.00
  S012040B             JUNCTION  -nan(ind)     0.00   725.91     0  00:00        0.00
  S012043              JUNCTION  -nan(ind)     0.00   727.73     0  00:00        0.00
  S012402              JUNCTION  -nan(ind)     0.00   725.57     0  00:00        0.00
  S012406              JUNCTION  -nan(ind)     0.00   727.78     0  00:00        0.00
  S012407              JUNCTION  -nan(ind)     0.00   729.13     0  00:00        0.00
  S012408              JUNCTION  -nan(ind)     0.00   729.94     0  00:00        0.00
  S012409              JUNCTION  -nan(ind)     0.00   734.50     0  00:00        0.00
  S012410              JUNCTION  -nan(ind)     0.00   727.34     0  00:00        0.00
  S012411              JUNCTION  -nan(ind)     0.00   729.71     0  00:00        0.00
  S012412              JUNCTION  -nan(ind)     0.00   728.01     0  00:00        0.00
  S012413              JUNCTION  -nan(ind)     0.00   726.39     0  00:00        0.00
  S012414              JUNCTION  -nan(ind)     0.00   726.87     0  00:00        0.00
  S012415              JUNCTION  -nan(ind)     0.00   726.09     0  00:00        0.00
  S012416              JUNCTION  -nan(ind)     0.00   728.38     0  00:00        0.00
  S012417              JUNCTION  -nan(ind)     0.00   728.48     0  00:00        0.00
  S012418              JUNCTION  -nan(ind)     0.00   728.89     0  00:00        0.00
  S012419              JUNCTION  -nan(ind)     0.00   729.91     0  00:00        0.00
  S012420              JUNCTION  -nan(ind)     0.00   728.99     0  00:00        0.00
  S012421              JUNCTION  -nan(ind)     0.00   728.83     0  00:00        0.00
  S012422              JUNCTION  -nan(ind)     0.00   728.04     0  00:00        0.00
  S012423              JUNCTION  -nan(ind)     0.00   727.42     0  00:00        0.00
  S012424              JUNCTION  -nan(ind)     0.00   727.69     0  00:00        0.00
  S012425              JUNCTION  -nan(ind)     0.00   728.83     0  00:00        0.00
  S012426              JUNCTION  -nan(ind)     0.00   727.78     0  00:00        0.00
  S012427              JUNCTION  -nan(ind)     0.00   726.94     0  00:00        0.00
  S012428              JUNCTION  -nan(ind)     0.00   726.90     0  00:00        0.00
  S012429              JUNCTION  -nan(ind)     0.00   731.87     0  00:00        0.00
  S012430              JUNCTION  -nan(ind)     0.00   725.15     0  00:00        0.00
  S012431              JUNCTION  -nan(ind)     0.00   725.18     0  00:00        0.00
  S012432              JUNCTION  -nan(ind)     0.00   726.75     0  00:00        0.00
  S012433              JUNCTION  -nan(ind)     0.00   726.93     0  00:00        0.00
  S012434              JUNCTION  -nan(ind)     0.00   732.52     0  00:00        0.00
  S012436              JUNCTION  -nan(ind)     0.00   734.30     0  00:00        0.00
  S012438              JUNCTION  -nan(ind)     0.00   726.40     0  00:00        0.00
  S012439              JUNCTION  -nan(ind)     0.00   726.41     0  00:00        0.00
  S012440              JUNCTION  -nan(ind)     0.00   728.47     0  00:00        0.00
  S012441              JUNCTION  -nan(ind)     0.00   728.68     0  00:00        0.00
  S012442              JUNCTION  -nan(ind)     0.00   728.77     0  00:00        0.00
  S012443              JUNCTION  -nan(ind)     0.00   728.79     0  00:00        0.00
  S012444              JUNCTION  -nan(ind)     0.00   726.81     0  00:00        0.00
  S012445              JUNCTION  -nan(ind)     0.00   727.48     0  00:00        0.00
  S012446              JUNCTION  -nan(ind)     0.00   727.10     0  00:00        0.00
  S012447              JUNCTION  -nan(ind)     0.00   728.05     0  00:00        0.00
  S012449              JUNCTION  -nan(ind)     0.00   727.43     0  00:00        0.00
  S012451              JUNCTION  -nan(ind)     0.00   734.42     0  00:00        0.00
  S013400              JUNCTION  -nan(ind)     0.00   720.70     0  00:00        0.00
  S013402              JUNCTION  -nan(ind)     0.00   722.06     0  00:00        0.00
  S013403              JUNCTION  -nan(ind)     0.00   722.39     0  00:00        0.00
  S013404              JUNCTION  -nan(ind)     0.00   722.39     0  00:00        0.00
  S013405              JUNCTION  -nan(ind)     0.00   722.80     0  00:00        0.00
  S013406              JUNCTION  -nan(ind)     0.00   724.73     0  00:00        0.00
  S013407              JUNCTION  -nan(ind)     0.00   724.87     0  00:00        0.00
  S013408              JUNCTION  -nan(ind)     0.00   725.00     0  00:00        0.00
  S013409              JUNCTION  -nan(ind)     0.00   725.03     0  00:00        0.00
  S013411              JUNCTION  -nan(ind)     0.00   720.75     0  00:00        0.00
  S024019              JUNCTION  -nan(ind)     0.00   843.54     0  00:00        0.00
  S024030A             JUNCTION  -nan(ind)     0.00   817.00     0  00:00        0.00
  S024042              JUNCTION  -nan(ind)     0.00   833.50     0  00:00        0.00
  S024065B             JUNCTION  -nan(ind)     0.00   793.76     0  00:00        0.00
  S024081              JUNCTION  -nan(ind)     0.00   756.57     0  00:00        0.00
  S024095              JUNCTION  -nan(ind)     0.00   740.00     0  00:00        0.00
  S024190              JUNCTION  -nan(ind)     0.00   757.23     0  00:00        0.00
  S024400              JUNCTION  -nan(ind)     0.00   748.26     0  00:00        0.00
  S024401              JUNCTION  -nan(ind)     0.00   740.00     0  00:00        0.00
  S024402              JUNCTION  -nan(ind)     0.00   748.23     0  00:00        0.00
  S024403              JUNCTION  -nan(ind)     0.00   748.00     0  00:00        0.00
  S024404              JUNCTION  -nan(ind)     0.00   746.00     0  00:00        0.00
  S024405              JUNCTION  -nan(ind)     0.00   743.90     0  00:00        0.00
  S024406              JUNCTION  -nan(ind)     0.00   742.14     0  00:00        0.00
  S024407              JUNCTION  -nan(ind)     0.00   740.00     0  00:00        0.00
  S024408              JUNCTION  -nan(ind)     0.00   740.00     0  00:00        0.00
  S024409              JUNCTION  -nan(ind)     0.00   739.05     0  00:00        0.00
  S024411              JUNCTION  -nan(ind)     0.00   731.10     0  00:00        0.00
  S024412              JUNCTION  -nan(ind)     0.00   734.03     0  00:00        0.00
  S024413              JUNCTION  -nan(ind)     0.00   735.86     0  00:00        0.00
  S024414              JUNCTION  -nan(ind)     0.00   738.36     0  00:00        0.00
  S024415              JUNCTION  -nan(ind)     0.00   739.76     0  00:00        0.00
  S024416              JUNCTION  -nan(ind)     0.00   741.31     0  00:00        0.00
  S024417              JUNCTION  -nan(ind)     0.00   741.19     0  00:00        0.00
  S024418              JUNCTION  -nan(ind)     0.00   742.14     0  00:00        0.00
  S024419              JUNCTION  -nan(ind)     0.00   748.34     0  00:00        0.00
  S024420              JUNCTION  -nan(ind)     0.00   742.81     0  00:00        0.00
  S024421              JUNCTION  -nan(ind)     0.00   747.95     0  00:00        0.00
  S024422              JUNCTION  -nan(ind)     0.00   743.60     0  00:00        0.00
  S024423              JUNCTION  -nan(ind)     0.00   743.35     0  00:00        0.00
  S024424              JUNCTION  -nan(ind)     0.00   748.07     0  00:00        0.00
  S024427              JUNCTION  -nan(ind)     0.00   753.60     0  00:00        0.00
  S024430              JUNCTION  -nan(ind)     0.00   751.76     0  00:00        0.00
  S024431              JUNCTION  -nan(ind)     0.00     0.00     0  00:00        0.00
  S024432              JUNCTION  -nan(ind)     0.00   788.50     0  00:00        0.00
  S024437              JUNCTION  -nan(ind)     0.00   781.77     0  00:00        0.00
  S024438              JUNCTION  -nan(ind)     0.00   773.76     0  00:00        0.00
  S024439              JUNCTION  -nan(ind)     0.00   755.90     0  00:00        0.00
  S024440              JUNCTION  -nan(ind)     0.00   748.41     0  00:00        0.00
  S024441              JUNCTION  -nan(ind)     0.00   754.40     0  00:00        0.00
  S024442              JUNCTION  -nan(ind)     0.00   760.39     0  00:00        0.00
  S024443              JUNCTION  -nan(ind)     0.00   757.41     0  00:00        0.00
  S024444              JUNCTION  -nan(ind)     0.00   760.34     0  00:00        0.00
  S024445              JUNCTION  -nan(ind)     0.00   764.60     0  00:00        0.00
  S024446              JUNCTION  -nan(ind)     0.00   779.00     0  00:00        0.00
  S024447              JUNCTION  -nan(ind)     0.00   767.72     0  00:00        0.00
  S024448              JUNCTION  -nan(ind)     0.00   766.73     0  00:00        0.00
  S024449              JUNCTION  -nan(ind)     0.00   777.38     0  00:00        0.00
  S024450              JUNCTION  -nan(ind)     0.00   771.31     0  00:00        0.00
  S024453              JUNCTION  -nan(ind)     0.00   787.14     0  00:00        0.00
  S024455              JUNCTION  -nan(ind)     0.00   799.44     0  00:00        0.00
  S024457              JUNCTION  -nan(ind)     0.00   810.42     0  00:00        0.00
  S024459              JUNCTION  -nan(ind)     0.00   828.51     0  00:00        0.00
  S024460              JUNCTION  -nan(ind)     0.00   829.46     0  00:00        0.00
  S024461              JUNCTION  -nan(ind)     0.00   835.55     0  00:00        0.00
  S024462              JUNCTION  -nan(ind)     0.00   841.04     0  00:00        0.00
  S024463              JUNCTION  -nan(ind)     0.00   855.44     0  00:00        0.00
  S024464              JUNCTION  -nan(ind)     0.00   836.36     0  00:00        0.00
  S024465              JUNCTION  -nan(ind)     0.00   804.58     0  00:00        0.00
  S024468              JUNCTION  -nan(ind)     0.00   803.47     0  00:00        0.00
  S024469              JUNCTION  -nan(ind)     0.00   810.29     0  00:00        0.00
  S024470              JUNCTION  -nan(ind)     0.00   821.81     0  00:00        0.00
  S024471              JUNCTION  -nan(ind)     0.00   810.33     0  00:00        0.00
  S024472              JUNCTION  -nan(ind)     0.00   799.45     0  00:00        0.00
  S024473              JUNCTION  -nan(ind)     0.00   799.50     0  00:00        0.00
  S024479              JUNCTION  -nan(ind)     0.00   855.00     0  00:00        0.00
  S024480              JUNCTION  -nan(ind)     0.00   834.62     0  00:00        0.00
  S024481              JUNCTION  -nan(ind)     0.00   824.78     0  00:00        0.00
  S024482              JUNCTION  -nan(ind)     0.00   803.25     0  00:00        0.00
  S024483              JUNCTION  -nan(ind)     0.00   810.34     0  00:00        0.00
  S024484              JUNCTION  -nan(ind)     0.00   829.75     0  00:00        0.00
  S024485              JUNCTION  -nan(ind)     0.00   829.75     0  00:00        0.00
  S024486              JUNCTION  -nan(ind)     0.00   810.02     0  00:00        0.00
  S024487              JUNCTION  -nan(ind)     0.00   796.05     0  00:00        0.00
  S024488              JUNCTION  -nan(ind)     0.00   781.09     0  00:00        0.00
  S024489              JUNCTION  -nan(ind)     0.00   751.42     0  00:00        0.00
  S024490              JUNCTION  -nan(ind)     0.00   749.71     0  00:00        0.00
  S024491              JUNCTION  -nan(ind)     0.00   759.14     0  00:00        0.00
  S024494              JUNCTION  -nan(ind)     0.00   727.33     0  00:00        0.00
  S024496              JUNCTION  -nan(ind)     0.00   850.22     0  00:00        0.00
  S024497              JUNCTION  -nan(ind)     0.00   730.60     0  00:00        0.00
  S024498              JUNCTION  -nan(ind)     0.00   793.66     0  00:00        0.00
  S024499              JUNCTION  -nan(ind)     0.00   738.71     0  00:00        0.00
  S025002D             JUNCTION  -nan(ind)     0.00   864.30     0  00:00        0.00
  S025400              JUNCTION  -nan(ind)     0.00   832.68     0  00:00        0.00
  S025401              JUNCTION  -nan(ind)     0.00   835.33     0  00:00        0.00
  S025402              JUNCTION  -nan(ind)     0.00   842.16     0  00:00        0.00
  S025404              JUNCTION  -nan(ind)     0.00   851.90     0  00:00        0.00
  S025405              JUNCTION  -nan(ind)     0.00   860.59     0  00:00        0.00
  S025406              JUNCTION  -nan(ind)     0.00   867.00     0  00:00        0.00
  S025407              JUNCTION  -nan(ind)     0.00   899.68     0  00:00        0.00
  S025408              JUNCTION  -nan(ind)     0.00   895.59     0  00:00        0.00
  S025410              JUNCTION  -nan(ind)     0.00   882.53     0  00:00        0.00
  S025411              JUNCTION  -nan(ind)     0.00   893.74     0  00:00        0.00
  S025412              JUNCTION  -nan(ind)     0.00   871.12     0  00:00        0.00
  S025417              JUNCTION  -nan(ind)     0.00   850.18     0  00:00        0.00
  S025418              JUNCTION  -nan(ind)     0.00   860.76     0  00:00        0.00
  S025419              JUNCTION  -nan(ind)     0.00   867.58     0  00:00        0.00
  S025420              JUNCTION  -nan(ind)     0.00   877.64     0  00:00        0.00
  S025421              JUNCTION  -nan(ind)     0.00   862.06     0  00:00        0.00
  S025422              JUNCTION  -nan(ind)     0.00   726.42     0  00:00        0.00
  S025423              JUNCTION  -nan(ind)     0.00   725.28     0  00:00        0.00
  S027498              JUNCTION  -nan(ind)     0.00   730.30     0  00:00        0.00
  N123                 OUTFALL   -nan(ind)     0.00   723.20     0  00:00        0.00
  N518                 OUTFALL   -nan(ind)     0.00   719.11     0  00:00        0.00
  S004402              OUTFALL   -nan(ind)     0.00   715.27     0  00:00        0.00
  S004412              OUTFALL   -nan(ind)     0.00   713.00     0  00:00        0.00
  S013410              OUTFALL   -nan(ind)     0.00   720.70     0  00:00        0.00
  S024494A             OUTFALL   -nan(ind)     0.00   727.03     0  00:00        0.00
  N34                  STORAGE   -nan(ind)     0.00   724.00     0  00:00        0.00
  S004405              STORAGE   -nan(ind)     0.00   720.00     0  00:00        0.00
  S005401              STORAGE   -nan(ind)     0.00   723.80     0  00:00        0.00
  S005411              STORAGE   -nan(ind)     0.00   724.00     0  00:00        0.00
  S011400              STORAGE   -nan(ind)     0.00   727.40     0  00:00        0.00
  S011402              STORAGE   -nan(ind)     0.00   728.00     0  00:00        0.00
  S011403              STORAGE   -nan(ind)     0.00   723.60     0  00:00        0.00
  S011407              STORAGE   -nan(ind)     0.00   731.32     0  00:00        0.00
  S012400              STORAGE   -nan(ind)     0.00   727.92     0  00:00        0.00
  S012401              STORAGE   -nan(ind)     0.00   729.50     0  00:00        0.00
  S012403              STORAGE   -nan(ind)     0.00   726.56     0  00:00        0.00
  S012404              STORAGE   -nan(ind)     0.00   726.13     0  00:00        0.00
  S012405              STORAGE   -nan(ind)     0.00   727.80     0  00:00        0.00
  S012448              STORAGE   -nan(ind)     0.00   727.56     0  00:00        0.00
  S012450              STORAGE   -nan(ind)     0.00   725.86     0  00:00        0.00
  
  
  *******************
  Node Inflow Summary
  *******************
  
  -------------------------------------------------------------------------------------------------
                                  Maximum  Maximum                  Lateral       Total        Flow
                                  Lateral    Total  Time of Max      Inflow      Inflow     Balance
                                   Inflow   Inflow   Occurrence      Volume      Volume       Error
  Node                 Type           CFS      CFS  days hr:min    10^6 gal    10^6 gal     Percent
  -------------------------------------------------------------------------------------------------
  S004400              JUNCTION      0.00     0.00     0  00:00           0           0       0.000 gal
  S004401              JUNCTION      0.00     0.00     0  00:00           0           0       0.000 gal
  S004403              JUNCTION      0.00     0.00     0  00:00           0           0       0.000 gal
  S004406              JUNCTION      0.00     0.00     0  00:00           0           0       0.000 gal
  S004407              JUNCTION      0.00     0.00     0  00:00           0           0       0.000 gal
  S004408              JUNCTION      0.00     0.00     0  00:00           0           0       0.000 gal
  S004410              JUNCTION      0.00     0.00     0  00:00           0           0       0.000 gal
  S004411              JUNCTION      0.00     0.00     0  00:00           0           0       0.000 gal
  S005016              JUNCTION      0.00     0.00     0  00:00           0           0       0.000 gal
  S005028              JUNCTION      0.00     0.00     0  00:00           0           0       0.000 gal
  S005036              JUNCTION      0.00     0.00     0  00:00           0           0       0.000 gal
  S005037              JUNCTION      0.00     0.00     0  00:00           0           0       0.000 gal
  S005038A             JUNCTION      0.00     0.00     0  00:00           0           0       0.000 gal
  S005043              JUNCTION      0.00     0.00     0  00:00           0           0       0.000 gal
  S005044              JUNCTION      0.00     0.00     0  00:00           0           0       0.000 gal
  S005045              JUNCTION      0.00     0.00     0  00:00           0           0       0.000 gal
  S005046              JUNCTION      0.00     0.00     0  00:00           0           0       0.000 gal
  S005047              JUNCTION      0.00     0.00     0  00:00           0           0       0.000 gal
  S005051              JUNCTION      0.00     0.00     0  00:00           0           0       0.000 gal
  S005056              JUNCTION      0.00     0.00     0  00:00           0           0       0.000 gal
  S005058              JUNCTION      0.00     0.00     0  00:00           0           0       0.000 gal
  S005060              JUNCTION      0.00     0.00     0  00:00           0           0       0.000 gal
  S005062              JUNCTION      0.00     0.00     0  00:00           0           0       0.000 gal
  S005064              JUNCTION      0.00     0.00     0  00:00           0           0       0.000 gal
  S005065              JUNCTION      0.00     0.00     0  00:00           0           0       0.000 gal
  S005073              JUNCTION      0.00     0.00     0  00:00           0           0       0.000 gal
  S005078              JUNCTION      0.00     0.00     0  00:00           0           0       0.000 gal
  S005079              JUNCTION      0.00     0.00     0  00:00           0           0       0.000 gal
  S005081              JUNCTION      0.00     0.00     0  00:00           0           0       0.000 gal
  S005082              JUNCTION      0.00     0.00     0  00:00           0           0       0.000 gal
  S005102              JUNCTION      0.00     0.00     0  00:00           0           0       0.000 gal
  S005103              JUNCTION      0.00     0.00     0  00:00           0           0       0.000 gal
  S005403              JUNCTION      0.00     0.00     0  00:00           0           0       0.000 gal
  S005404              JUNCTION      0.00     0.00     0  00:00           0           0       0.000 gal
  S005406              JUNCTION      0.00     0.00     0  00:00           0           0       0.000 gal
  S005407              JUNCTION      0.00     0.00     0  00:00           0           0       0.000 gal
  S005408              JUNCTION      0.00     0.00     0  00:00           0           0       0.000 gal
  S005409              JUNCTION      0.00     0.00     0  00:00           0           0       0.000 gal
  S005410              JUNCTION      0.00     0.00     0  00:00           0           0       0.000 gal
  S005412              JUNCTION      0.00     0.00     0  00:00           0           0       0.000 gal
  S005413              JUNCTION      0.00     0.00     0  00:00           0           0       0.000 gal
  S005414              JUNCTION      0.00     0.00     0  00:00           0           0       0.000 gal
  S005417              JUNCTION      0.00     0.00     0  00:00           0           0       0.000 gal
  S005418              JUNCTION      0.00     0.00     0  00:00           0           0       0.000 gal
  S005419              JUNCTION      0.00     0.00     0  00:00           0           0       0.000 gal
  S005420              JUNCTION      0.00     0.00     0  00:00           0           0       0.000 gal
  S005421              JUNCTION      0.00     0.00     0  00:00           0           0       0.000 gal
  S005422              JUNCTION      0.00     0.00     0  00:00           0           0       0.000 gal
  S005423              JUNCTION      0.00     0.00     0  00:00           0           0       0.000 gal
  S005424              JUNCTION      0.00     0.00     0  00:00           0           0       0.000 gal
  S005425              JUNCTION      0.00     0.00     0  00:00           0           0       0.000 gal
  S005426              JUNCTION      0.00     0.00     0  00:00           0           0       0.000 gal
  S005427              JUNCTION      0.00     0.00     0  00:00           0           0       0.000 gal
  S005428              JUNCTION      0.00     0.00     0  00:00           0           0       0.000 gal
  S005429              JUNCTION      0.00     0.00     0  00:00           0           0       0.000 gal
  S005430              JUNCTION      0.00     0.00     0  00:00           0           0       0.000 gal
  S005431              JUNCTION      0.00     0.00     0  00:00           0           0       0.000 gal
  S005432              JUNCTION      0.00     0.00     0  00:00           0           0       0.000 gal
  S005433              JUNCTION      0.00     0.00     0  00:00           0           0       0.000 gal
  S005434              JUNCTION      0.00     0.00     0  00:00           0           0       0.000 gal
  S005435              JUNCTION      0.00     0.00     0  00:00           0           0       0.000 gal
  S005436              JUNCTION      0.00     0.00     0  00:00           0           0       0.000 gal
  S005437              JUNCTION      0.00     0.00     0  00:00           0           0       0.000 gal
  S005438              JUNCTION      0.00     0.00     0  00:00           0           0       0.000 gal
  S005439              JUNCTION      0.00     0.00     0  00:00           0           0       0.000 gal
  S005440              JUNCTION      0.00     0.00     0  00:00           0           0       0.000 gal
  S005441              JUNCTION      0.00     0.00     0  00:00           0           0       0.000 gal
  S005442              JUNCTION      0.00     0.00     0  00:00           0           0       0.000 gal
  S005443              JUNCTION      0.00     0.00     0  00:00           0           0       0.000 gal
  S005444              JUNCTION      0.00     0.00     0  00:00           0           0       0.000 gal
  S005445              JUNCTION      0.00     0.00     0  00:00           0           0       0.000 gal
  S005446              JUNCTION      0.00     0.00     0  00:00           0           0       0.000 gal
  S005447              JUNCTION      0.00     0.00     0  00:00           0           0       0.000 gal
  S005448              JUNCTION      0.00     0.00     0  00:00           0           0       0.000 gal
  S005451              JUNCTION      0.00     0.00     0  00:00           0           0       0.000 gal
  S005452              JUNCTION      0.00     0.00     0  00:00           0           0       0.000 gal
  S005453              JUNCTION      0.00     0.00     0  00:00           0           0       0.000 gal
  S005454              JUNCTION      0.00     0.00     0  00:00           0           0       0.000 gal
  S005455              JUNCTION      0.00     0.00     0  00:00           0           0       0.000 gal
  S005456              JUNCTION      0.00     0.00     0  00:00           0           0       0.000 gal
  S005457              JUNCTION      0.00     0.00     0  00:00           0           0       0.000 gal
  S005458              JUNCTION      0.00     0.00     0  00:00           0           0       0.000 gal
  S005459              JUNCTION      0.00     0.00     0  00:00           0           0       0.000 gal
  S005462              JUNCTION      0.00     0.00     0  00:00           0           0       0.000 gal
  S005467              JUNCTION      0.00     0.00     0  00:00           0           0       0.000 gal
  S005468              JUNCTION      0.00     0.00     0  00:00           0           0       0.000 gal
  S006008              JUNCTION      0.00     0.00     0  00:00           0           0       0.000 gal
  S006009              JUNCTION      0.00     0.00     0  00:00           0           0       0.000 gal
  S006057              JUNCTION      0.00     0.00     0  00:00           0           0       0.000 gal
  S006058              JUNCTION      0.00     0.00     0  00:00           0           0       0.000 gal
  S006075              JUNCTION      0.00     0.00     0  00:00           0           0       0.000 gal
  S006106              JUNCTION      0.00     0.00     0  00:00           0           0       0.000 gal
  S006107              JUNCTION      0.00     0.00     0  00:00           0           0       0.000 gal
  S006108              JUNCTION      0.00     0.00     0  00:00           0           0       0.000 gal
  S006117              JUNCTION      0.00     0.00     0  00:00           0           0       0.000 gal
  S006118              JUNCTION      0.00     0.00     0  00:00           0           0       0.000 gal
  S006119              JUNCTION      0.00     0.00     0  00:00           0           0       0.000 gal
  S006400              JUNCTION      0.00     0.00     0  00:00           0           0       0.000 gal
  S006403              JUNCTION      0.00     0.00     0  00:00           0           0       0.000 gal
  S006404              JUNCTION      0.00     0.00     0  00:00           0           0       0.000 gal
  S006405              JUNCTION      0.00     0.00     0  00:00           0           0       0.000 gal
  S006406              JUNCTION      0.00     0.00     0  00:00           0           0       0.000 gal
  S006408              JUNCTION      0.00     0.00     0  00:00           0           0       0.000 gal
  S006409              JUNCTION      0.00     0.00     0  00:00           0           0       0.000 gal
  S006411              JUNCTION      0.00     0.00     0  00:00           0           0       0.000 gal
  S006412              JUNCTION      0.00     0.00     0  00:00           0           0       0.000 gal
  S006413              JUNCTION      0.00     0.00     0  00:00           0           0       0.000 gal
  S006415              JUNCTION      0.00     0.00     0  00:00           0           0       0.000 gal
  S006416              JUNCTION      0.00     0.00     0  00:00           0           0       0.000 gal
  S006417              JUNCTION      0.00     0.00     0  00:00           0           0       0.000 gal
  S006418              JUNCTION      0.00     0.00     0  00:00           0           0       0.000 gal
  S006419              JUNCTION      0.00     0.00     0  00:00           0           0       0.000 gal
  S006420              JUNCTION      0.00     0.00     0  00:00           0           0       0.000 gal
  S006421              JUNCTION      0.00     0.00     0  00:00           0           0       0.000 gal
  S006422              JUNCTION      0.00     0.00     0  00:00           0           0       0.000 gal
  S006423              JUNCTION      0.00     0.00     0  00:00           0           0       0.000 gal
  S006424              JUNCTION      0.00     0.00     0  00:00           0           0       0.000 gal
  S006425              JUNCTION      0.00     0.00     0  00:00           0           0       0.000 gal
  S006426              JUNCTION      0.00     0.00     0  00:00           0           0       0.000 gal
  S006427              JUNCTION      0.00     0.00     0  00:00           0           0       0.000 gal
  S006428              JUNCTION      0.00     0.00     0  00:00           0           0       0.000 gal
  S006429              JUNCTION      0.00     0.00     0  00:00           0           0       0.000 gal
[...]
  HPL10-1(00)             1.00   -nan(ind)  -nan(ind)  -nan(ind)  -nan(ind)  -nan(ind)  -nan(ind)  -nan(ind)  -nan(ind)  -nan(ind)
  HPL13(06)               1.00   -nan(ind)  -nan(ind)  -nan(ind)  -nan(ind)  -nan(ind)  -nan(ind)  -nan(ind)  -nan(ind)  -nan(ind)
  HPL13-1(01)             1.00   -nan(ind)  -nan(ind)  -nan(ind)  -nan(ind)  -nan(ind)  -nan(ind)  -nan(ind)  -nan(ind)  -nan(ind)
  HPL9(01)                1.00   -nan(ind)  -nan(ind)  -nan(ind)  -nan(ind)  -nan(ind)  -nan(ind)  -nan(ind)  -nan(ind)  -nan(ind)
  HPL9(02)                1.00   -nan(ind)  -nan(ind)  -nan(ind)  -nan(ind)  -nan(ind)  -nan(ind)  -nan(ind)  -nan(ind)  -nan(ind)
  HPMC(01A)               1.00   -nan(ind)  -nan(ind)  -nan(ind)  -nan(ind)  -nan(ind)  -nan(ind)  -nan(ind)  -nan(ind)  -nan(ind)
  HPMC(06A)               1.00   -nan(ind)  -nan(ind)  -nan(ind)  -nan(ind)  -nan(ind)  -nan(ind)  -nan(ind)  -nan(ind)  -nan(ind)
  HPMC(07)                1.00   -nan(ind)  -nan(ind)  -nan(ind)  -nan(ind)  -nan(ind)  -nan(ind)  -nan(ind)  -nan(ind)  -nan(ind)
  HPMC(09)                1.00   -nan(ind)  -nan(ind)  -nan(ind)  -nan(ind)  -nan(ind)  -nan(ind)  -nan(ind)  -nan(ind)  -nan(ind)
  HPMC(11)                1.00   -nan(ind)  -nan(ind)  -nan(ind)  -nan(ind)  -nan(ind)  -nan(ind)  -nan(ind)  -nan(ind)  -nan(ind)
  HPMC(14)                1.00   -nan(ind)  -nan(ind)  -nan(ind)  -nan(ind)  -nan(ind)  -nan(ind)  -nan(ind)  -nan(ind)  -nan(ind)
  HPMC(15A)               1.00   -nan(ind)  -nan(ind)  -nan(ind)  -nan(ind)  -nan(ind)  -nan(ind)  -nan(ind)  -nan(ind)  -nan(ind)
  HTL2(01)                1.00   -nan(ind)  -nan(ind)  -nan(ind)  -nan(ind)  -nan(ind)  -nan(ind)  -nan(ind)  -nan(ind)  -nan(ind)
  HTL2(02)                1.00   -nan(ind)  -nan(ind)  -nan(ind)  -nan(ind)  -nan(ind)  -nan(ind)  -nan(ind)  -nan(ind)  -nan(ind)
  HTL2(03)                1.00   -nan(ind)  -nan(ind)  -nan(ind)  -nan(ind)  -nan(ind)  -nan(ind)  -nan(ind)  -nan(ind)  -nan(ind)
  HTL2(04)                1.00   -nan(ind)  -nan(ind)  -nan(ind)  -nan(ind)  -nan(ind)  -nan(ind)  -nan(ind)  -nan(ind)  -nan(ind)
  HTL2(05)                1.00   -nan(ind)  -nan(ind)  -nan(ind)  -nan(ind)  -nan(ind)  -nan(ind)  -nan(ind)  -nan(ind)  -nan(ind)
  HTL2-1(01)              1.00   -nan(ind)  -nan(ind)  -nan(ind)  -nan(ind)  -nan(ind)  -nan(ind)  -nan(ind)  -nan(ind)  -nan(ind)
  HTL3(01)                1.00   -nan(ind)  -nan(ind)  -nan(ind)  -nan(ind)  -nan(ind)  -nan(ind)  -nan(ind)  -nan(ind)  -nan(ind)
  HTL3(02)                1.00   -nan(ind)  -nan(ind)  -nan(ind)  -nan(ind)  -nan(ind)  -nan(ind)  -nan(ind)  -nan(ind)  -nan(ind)
  HTL4(01)                7.17   -nan(ind)  -nan(ind)  -nan(ind)  -nan(ind)  -nan(ind)  -nan(ind)  -nan(ind)  -nan(ind)  -nan(ind)
  HTL4(02)                1.00   -nan(ind)  -nan(ind)  -nan(ind)  -nan(ind)  -nan(ind)  -nan(ind)  -nan(ind)  -nan(ind)  -nan(ind)
  HTL5(01)                1.00   -nan(ind)  -nan(ind)  -nan(ind)  -nan(ind)  -nan(ind)  -nan(ind)  -nan(ind)  -nan(ind)  -nan(ind)
  HTL5(02)                1.00   -nan(ind)  -nan(ind)  -nan(ind)  -nan(ind)  -nan(ind)  -nan(ind)  -nan(ind)  -nan(ind)  -nan(ind)
  HTL5(03)                1.00   -nan(ind)  -nan(ind)  -nan(ind)  -nan(ind)  -nan(ind)  -nan(ind)  -nan(ind)  -nan(ind)  -nan(ind)
  HTL5(04)                1.00   -nan(ind)  -nan(ind)  -nan(ind)  -nan(ind)  -nan(ind)  -nan(ind)  -nan(ind)  -nan(ind)  -nan(ind)
  HTL5(05)                1.00   -nan(ind)  -nan(ind)  -nan(ind)  -nan(ind)  -nan(ind)  -nan(ind)  -nan(ind)  -nan(ind)  -nan(ind)
  HTL5(06)                1.00   -nan(ind)  -nan(ind)  -nan(ind)  -nan(ind)  -nan(ind)  -nan(ind)  -nan(ind)  -nan(ind)  -nan(ind)
  HTL5(07)                1.00   -nan(ind)  -nan(ind)  -nan(ind)  -nan(ind)  -nan(ind)  -nan(ind)  -nan(ind)  -nan(ind)  -nan(ind)
  HTL5(08)                1.00   -nan(ind)  -nan(ind)  -nan(ind)  -nan(ind)  -nan(ind)  -nan(ind)  -nan(ind)  -nan(ind)  -nan(ind)
  HTL5(09)                1.00   -nan(ind)  -nan(ind)  -nan(ind)  -nan(ind)  -nan(ind)  -nan(ind)  -nan(ind)  -nan(ind)  -nan(ind)
  HTL5(10)                1.00   -nan(ind)  -nan(ind)  -nan(ind)  -nan(ind)  -nan(ind)  -nan(ind)  -nan(ind)  -nan(ind)  -nan(ind)
  HTL5-1(01)              1.00   -nan(ind)  -nan(ind)  -nan(ind)  -nan(ind)  -nan(ind)  -nan(ind)  -nan(ind)  -nan(ind)  -nan(ind)
  HTL5-1(02)              1.00   -nan(ind)  -nan(ind)  -nan(ind)  -nan(ind)  -nan(ind)  -nan(ind)  -nan(ind)  -nan(ind)  -nan(ind)
  HTL5-1(03)              1.00   -nan(ind)  -nan(ind)  -nan(ind)  -nan(ind)  -nan(ind)  -nan(ind)  -nan(ind)  -nan(ind)  -nan(ind)
  HTL5-1(04)              1.00   -nan(ind)  -nan(ind)  -nan(ind)  -nan(ind)  -nan(ind)  -nan(ind)  -nan(ind)  -nan(ind)  -nan(ind)
  HTL5-1(05)              1.00   -nan(ind)  -nan(ind)  -nan(ind)  -nan(ind)  -nan(ind)  -nan(ind)  -nan(ind)  -nan(ind)  -nan(ind)
  HTL5-2(01)              1.00   -nan(ind)  -nan(ind)  -nan(ind)  -nan(ind)  -nan(ind)  -nan(ind)  -nan(ind)  -nan(ind)  -nan(ind)
  HTL5-3(01)              1.00   -nan(ind)  -nan(ind)  -nan(ind)  -nan(ind)  -nan(ind)  -nan(ind)  -nan(ind)  -nan(ind)  -nan(ind)
  HTL5-4(01)              1.00   -nan(ind)  -nan(ind)  -nan(ind)  -nan(ind)  -nan(ind)  -nan(ind)  -nan(ind)  -nan(ind)  -nan(ind)
  HTL5-5(01)              1.00   -nan(ind)  -nan(ind)  -nan(ind)  -nan(ind)  -nan(ind)  -nan(ind)  -nan(ind)  -nan(ind)  -nan(ind)
  HTL5-5(02)              1.00   -nan(ind)  -nan(ind)  -nan(ind)  -nan(ind)  -nan(ind)  -nan(ind)  -nan(ind)  -nan(ind)  -nan(ind)
  HTMC(01)                1.00   -nan(ind)  -nan(ind)  -nan(ind)  -nan(ind)  -nan(ind)  -nan(ind)  -nan(ind)  -nan(ind)  -nan(ind)
  HTMC(02)                1.00   -nan(ind)  -nan(ind)  -nan(ind)  -nan(ind)  -nan(ind)  -nan(ind)  -nan(ind)  -nan(ind)  -nan(ind)
  HTMC(03)                1.00   -nan(ind)  -nan(ind)  -nan(ind)  -nan(ind)  -nan(ind)  -nan(ind)  -nan(ind)  -nan(ind)  -nan(ind)
  HTMC(04)                1.00   -nan(ind)  -nan(ind)  -nan(ind)  -nan(ind)  -nan(ind)  -nan(ind)  -nan(ind)  -nan(ind)  -nan(ind)
  HTMC(05)                1.00   -nan(ind)  -nan(ind)  -nan(ind)  -nan(ind)  -nan(ind)  -nan(ind)  -nan(ind)  -nan(ind)  -nan(ind)
  HTMC(06)                1.00   -nan(ind)  -nan(ind)  -nan(ind)  -nan(ind)  -nan(ind)  -nan(ind)  -nan(ind)  -nan(ind)  -nan(ind)
  HTMC(07)                1.00   -nan(ind)  -nan(ind)  -nan(ind)  -nan(ind)  -nan(ind)  -nan(ind)  -nan(ind)  -nan(ind)  -nan(ind)
  HTMC(08)                1.00   -nan(ind)  -nan(ind)  -nan(ind)  -nan(ind)  -nan(ind)  -nan(ind)  -nan(ind)  -nan(ind)  -nan(ind)
  HTMC(10)                1.00   -nan(ind)  -nan(ind)  -nan(ind)  -nan(ind)  -nan(ind)  -nan(ind)  -nan(ind)  -nan(ind)  -nan(ind)
  HTMC(11)                1.00   -nan(ind)  -nan(ind)  -nan(ind)  -nan(ind)  -nan(ind)  -nan(ind)  -nan(ind)  -nan(ind)  -nan(ind)
  HTMC(12)                1.00   -nan(ind)  -nan(ind)  -nan(ind)  -nan(ind)  -nan(ind)  -nan(ind)  -nan(ind)  -nan(ind)  -nan(ind)
  HTMC(13)                1.00   -nan(ind)  -nan(ind)  -nan(ind)  -nan(ind)  -nan(ind)  -nan(ind)  -nan(ind)  -nan(ind)  -nan(ind)
  L112                    1.00   -nan(ind)  -nan(ind)  -nan(ind)  -nan(ind)  -nan(ind)  -nan(ind)  -nan(ind)  -nan(ind)  -nan(ind)
  UAL1(01)              226.30   -nan(ind)  -nan(ind)  -nan(ind)  -nan(ind)  -nan(ind)  -nan(ind)  -nan(ind)  -nan(ind)  -nan(ind)
  UAL1(02)                1.00   -nan(ind)  -nan(ind)  -nan(ind)  -nan(ind)  -nan(ind)  -nan(ind)  -nan(ind)  -nan(ind)  -nan(ind)
  UAL1(03)                1.00   -nan(ind)  -nan(ind)  -nan(ind)  -nan(ind)  -nan(ind)  -nan(ind)  -nan(ind)  -nan(ind)  -nan(ind)
  UAL1(04)                1.00   -nan(ind)  -nan(ind)  -nan(ind)  -nan(ind)  -nan(ind)  -nan(ind)  -nan(ind)  -nan(ind)  -nan(ind)
  UAL1(05)                1.00   -nan(ind)  -nan(ind)  -nan(ind)  -nan(ind)  -nan(ind)  -nan(ind)  -nan(ind)  -nan(ind)  -nan(ind)
  UAL1(06)                1.00   -nan(ind)  -nan(ind)  -nan(ind)  -nan(ind)  -nan(ind)  -nan(ind)  -nan(ind)  -nan(ind)  -nan(ind)
  UAL1(07)                1.00   -nan(ind)  -nan(ind)  -nan(ind)  -nan(ind)  -nan(ind)  -nan(ind)  -nan(ind)  -nan(ind)  -nan(ind)
  UAL1(10)                1.00   -nan(ind)  -nan(ind)  -nan(ind)  -nan(ind)  -nan(ind)  -nan(ind)  -nan(ind)  -nan(ind)  -nan(ind)
  UAL1(11)                1.00   -nan(ind)  -nan(ind)  -nan(ind)  -nan(ind)  -nan(ind)  -nan(ind)  -nan(ind)  -nan(ind)  -nan(ind)
  UAL1(12)                1.00   -nan(ind)  -nan(ind)  -nan(ind)  -nan(ind)  -nan(ind)  -nan(ind)  -nan(ind)  -nan(ind)  -nan(ind)
  UAL1-1(01)              1.00   -nan(ind)  -nan(ind)  -nan(ind)  -nan(ind)  -nan(ind)  -nan(ind)  -nan(ind)  -nan(ind)  -nan(ind)
  UAL1-1(02)              1.00   -nan(ind)  -nan(ind)  -nan(ind)  -nan(ind)  -nan(ind)  -nan(ind)  -nan(ind)  -nan(ind)  -nan(ind)
  UAL2(01)                1.00   -nan(ind)  -nan(ind)  -nan(ind)  -nan(ind)  -nan(ind)  -nan(ind)  -nan(ind)  -nan(ind)  -nan(ind)
  UAL2(02)                1.00   -nan(ind)  -nan(ind)  -nan(ind)  -nan(ind)  -nan(ind)  -nan(ind)  -nan(ind)  -nan(ind)  -nan(ind)
  UAL2(03)                1.00   -nan(ind)  -nan(ind)  -nan(ind)  -nan(ind)  -nan(ind)  -nan(ind)  -nan(ind)  -nan(ind)  -nan(ind)
  UAL2(04)                1.69   -nan(ind)  -nan(ind)  -nan(ind)  -nan(ind)  -nan(ind)  -nan(ind)  -nan(ind)  -nan(ind)  -nan(ind)
  UAL3(01)                1.00   -nan(ind)  -nan(ind)  -nan(ind)  -nan(ind)  -nan(ind)  -nan(ind)  -nan(ind)  -nan(ind)  -nan(ind)
  UAL3(02)                1.00   -nan(ind)  -nan(ind)  -nan(ind)  -nan(ind)  -nan(ind)  -nan(ind)  -nan(ind)  -nan(ind)  -nan(ind)
  UAL3(03)                1.00   -nan(ind)  -nan(ind)  -nan(ind)  -nan(ind)  -nan(ind)  -nan(ind)  -nan(ind)  -nan(ind)  -nan(ind)
  UAL3(04)                1.00   -nan(ind)  -nan(ind)  -nan(ind)  -nan(ind)  -nan(ind)  -nan(ind)  -nan(ind)  -nan(ind)  -nan(ind)
  UAL4(01)                1.00   -nan(ind)  -nan(ind)  -nan(ind)  -nan(ind)  -nan(ind)  -nan(ind)  -nan(ind)  -nan(ind)  -nan(ind)
  UAL4(02)                1.00   -nan(ind)  -nan(ind)  -nan(ind)  -nan(ind)  -nan(ind)  -nan(ind)  -nan(ind)  -nan(ind)  -nan(ind)
  UAL4(03)                1.00   -nan(ind)  -nan(ind)  -nan(ind)  -nan(ind)  -nan(ind)  -nan(ind)  -nan(ind)  -nan(ind)  -nan(ind)
  UAL4(04)                1.00   -nan(ind)  -nan(ind)  -nan(ind)  -nan(ind)  -nan(ind)  -nan(ind)  -nan(ind)  -nan(ind)  -nan(ind)
  UAL4(05)                1.00   -nan(ind)  -nan(ind)  -nan(ind)  -nan(ind)  -nan(ind)  -nan(ind)  -nan(ind)  -nan(ind)  -nan(ind)
  UAL4(06)                1.00   -nan(ind)  -nan(ind)  -nan(ind)  -nan(ind)  -nan(ind)  -nan(ind)  -nan(ind)  -nan(ind)  -nan(ind)
  UAL4(07)                1.00   -nan(ind)  -nan(ind)  -nan(ind)  -nan(ind)  -nan(ind)  -nan(ind)  -nan(ind)  -nan(ind)  -nan(ind)
  UAL4(08)                1.00   -nan(ind)  -nan(ind)  -nan(ind)  -nan(ind)  -nan(ind)  -nan(ind)  -nan(ind)  -nan(ind)  -nan(ind)
  UAL4(09)                1.00   -nan(ind)  -nan(ind)  -nan(ind)  -nan(ind)  -nan(ind)  -nan(ind)  -nan(ind)  -nan(ind)  -nan(ind)
  UAL4-1(01)              1.00   -nan(ind)  -nan(ind)  -nan(ind)  -nan(ind)  -nan(ind)  -nan(ind)  -nan(ind)  -nan(ind)  -nan(ind)
  UAL4-2(01)              1.00   -nan(ind)  -nan(ind)  -nan(ind)  -nan(ind)  -nan(ind)  -nan(ind)  -nan(ind)  -nan(ind)  -nan(ind)
  UAL4-2(02)              1.00   -nan(ind)  -nan(ind)  -nan(ind)  -nan(ind)  -nan(ind)  -nan(ind)  -nan(ind)  -nan(ind)  -nan(ind)
  UAL4-2(03)              1.00   -nan(ind)  -nan(ind)  -nan(ind)  -nan(ind)  -nan(ind)  -nan(ind)  -nan(ind)  -nan(ind)  -nan(ind)
  UAL4-2(04)              1.00   -nan(ind)  -nan(ind)  -nan(ind)  -nan(ind)  -nan(ind)  -nan(ind)  -nan(ind)  -nan(ind)  -nan(ind)
  UAL4-2(05)              1.00   -nan(ind)  -nan(ind)  -nan(ind)  -nan(ind)  -nan(ind)  -nan(ind)  -nan(ind)  -nan(ind)  -nan(ind)
  UAL4-2(06)              1.00   -nan(ind)  -nan(ind)  -nan(ind)  -nan(ind)  -nan(ind)  -nan(ind)  -nan(ind)  -nan(ind)  -nan(ind)
  UAL4-3(01)              1.00   -nan(ind)  -nan(ind)  -nan(ind)  -nan(ind)  -nan(ind)  -nan(ind)  -nan(ind)  -nan(ind)  -nan(ind)
  UAL5(01)               31.15   -nan(ind)  -nan(ind)  -nan(ind)  -nan(ind)  -nan(ind)  -nan(ind)  -nan(ind)  -nan(ind)  -nan(ind)
  UAL5(02)                1.00   -nan(ind)  -nan(ind)  -nan(ind)  -nan(ind)  -nan(ind)  -nan(ind)  -nan(ind)  -nan(ind)  -nan(ind)
  UAL5(03)                1.00   -nan(ind)  -nan(ind)  -nan(ind)  -nan(ind)  -nan(ind)  -nan(ind)  -nan(ind)  -nan(ind)  -nan(ind)
  UAL5(04)                1.00   -nan(ind)  -nan(ind)  -nan(ind)  -nan(ind)  -nan(ind)  -nan(ind)  -nan(ind)  -nan(ind)  -nan(ind)
  UAL5(05)                1.00   -nan(ind)  -nan(ind)  -nan(ind)  -nan(ind)  -nan(ind)  -nan(ind)  -nan(ind)  -nan(ind)  -nan(ind)
  UAL5-1(01)              1.10   -nan(ind)  -nan(ind)  -nan(ind)  -nan(ind)  -nan(ind)  -nan(ind)  -nan(ind)  -nan(ind)  -nan(ind)
  UAL6(01)               12.68   -nan(ind)  -nan(ind)  -nan(ind)  -nan(ind)  -nan(ind)  -nan(ind)  -nan(ind)  -nan(ind)  -nan(ind)
  UAL6(02)                1.00   -nan(ind)  -nan(ind)  -nan(ind)  -nan(ind)  -nan(ind)  -nan(ind)  -nan(ind)  -nan(ind)  -nan(ind)
  UAL6(03)                3.36   -nan(ind)  -nan(ind)  -nan(ind)  -nan(ind)  -nan(ind)  -nan(ind)  -nan(ind)  -nan(ind)  -nan(ind)
  UAL6(04)                3.36   -nan(ind)  -nan(ind)  -nan(ind)  -nan(ind)  -nan(ind)  -nan(ind)  -nan(ind)  -nan(ind)  -nan(ind)
  UAL6(05)                1.00   -nan(ind)  -nan(ind)  -nan(ind)  -nan(ind)  -nan(ind)  -nan(ind)  -nan(ind)  -nan(ind)  -nan(ind)
  UAL6(06)                1.00   -nan(ind)  -nan(ind)  -nan(ind)  -nan(ind)  -nan(ind)  -nan(ind)  -nan(ind)  -nan(ind)  -nan(ind)
  UAL6(07)                1.00   -nan(ind)  -nan(ind)  -nan(ind)  -nan(ind)  -nan(ind)  -nan(ind)  -nan(ind)  -nan(ind)  -nan(ind)
  UAL6-1(01)              3.36   -nan(ind)  -nan(ind)  -nan(ind)  -nan(ind)  -nan(ind)  -nan(ind)  -nan(ind)  -nan(ind)  -nan(ind)
  UAL6-1(02)              1.00   -nan(ind)  -nan(ind)  -nan(ind)  -nan(ind)  -nan(ind)  -nan(ind)  -nan(ind)  -nan(ind)  -nan(ind)
  UAL6-1(03)              1.00   -nan(ind)  -nan(ind)  -nan(ind)  -nan(ind)  -nan(ind)  -nan(ind)  -nan(ind)  -nan(ind)  -nan(ind)
  UAL6-1(04)              1.00   -nan(ind)  -nan(ind)  -nan(ind)  -nan(ind)  -nan(ind)  -nan(ind)  -nan(ind)  -nan(ind)  -nan(ind)
  UAL6-1(05)              1.00   -nan(ind)  -nan(ind)  -nan(ind)  -nan(ind)  -nan(ind)  -nan(ind)  -nan(ind)  -nan(ind)  -nan(ind)
  UAL6-3(01)              1.00   -nan(ind)  -nan(ind)  -nan(ind)  -nan(ind)  -nan(ind)  -nan(ind)  -nan(ind)  -nan(ind)  -nan(ind)
  UAL6-3(02)              1.00   -nan(ind)  -nan(ind)  -nan(ind)  -nan(ind)  -nan(ind)  -nan(ind)  -nan(ind)  -nan(ind)  -nan(ind)
  UAL6-4(01)              3.36   -nan(ind)  -nan(ind)  -nan(ind)  -nan(ind)  -nan(ind)  -nan(ind)  -nan(ind)  -nan(ind)  -nan(ind)
  UAL6-4(02)              1.00   -nan(ind)  -nan(ind)  -nan(ind)  -nan(ind)  -nan(ind)  -nan(ind)  -nan(ind)  -nan(ind)  -nan(ind)
  UAL6-4(03)              1.00   -nan(ind)  -nan(ind)  -nan(ind)  -nan(ind)  -nan(ind)  -nan(ind)  -nan(ind)  -nan(ind)  -nan(ind)
  UAL6-4(04)              1.00   -nan(ind)  -nan(ind)  -nan(ind)  -nan(ind)  -nan(ind)  -nan(ind)  -nan(ind)  -nan(ind)  -nan(ind)
  UAL6-5(01)             27.35   -nan(ind)  -nan(ind)  -nan(ind)  -nan(ind)  -nan(ind)  -nan(ind)  -nan(ind)  -nan(ind)  -nan(ind)
  UAL6-5(02)              1.00   -nan(ind)  -nan(ind)  -nan(ind)  -nan(ind)  -nan(ind)  -nan(ind)  -nan(ind)  -nan(ind)  -nan(ind)
  UAL6-5(03)              1.00   -nan(ind)  -nan(ind)  -nan(ind)  -nan(ind)  -nan(ind)  -nan(ind)  -nan(ind)  -nan(ind)  -nan(ind)
  UAL7(01)                1.00   -nan(ind)  -nan(ind)  -nan(ind)  -nan(ind)  -nan(ind)  -nan(ind)  -nan(ind)  -nan(ind)  -nan(ind)
  UAL7(02)                1.00   -nan(ind)  -nan(ind)  -nan(ind)  -nan(ind)  -nan(ind)  -nan(ind)  -nan(ind)  -nan(ind)  -nan(ind)
  UAL7(03)                1.00   -nan(ind)  -nan(ind)  -nan(ind)  -nan(ind)  -nan(ind)  -nan(ind)  -nan(ind)  -nan(ind)  -nan(ind)
  UAL8(01)                1.00   -nan(ind)  -nan(ind)  -nan(ind)  -nan(ind)  -nan(ind)  -nan(ind)  -nan(ind)  -nan(ind)  -nan(ind)
  UAL8(02)                1.00   -nan(ind)  -nan(ind)  -nan(ind)  -nan(ind)  -nan(ind)  -nan(ind)  -nan(ind)  -nan(ind)  -nan(ind)
  UAL8(03)                1.00   -nan(ind)  -nan(ind)  -nan(ind)  -nan(ind)  -nan(ind)  -nan(ind)  -nan(ind)  -nan(ind)  -nan(ind)
  UAL8(04)                1.00   -nan(ind)  -nan(ind)  -nan(ind)  -nan(ind)  -nan(ind)  -nan(ind)  -nan(ind)  -nan(ind)  -nan(ind)
  UAL8(05)                1.00   -nan(ind)  -nan(ind)  -nan(ind)  -nan(ind)  -nan(ind)  -nan(ind)  -nan(ind)  -nan(ind)  -nan(ind)
  UAL8(06)                1.00   -nan(ind)  -nan(ind)  -nan(ind)  -nan(ind)  -nan(ind)  -nan(ind)  -nan(ind)  -nan(ind)  -nan(ind)
  UAL8(07)                1.00   -nan(ind)  -nan(ind)  -nan(ind)  -nan(ind)  -nan(ind)  -nan(ind)  -nan(ind)  -nan(ind)  -nan(ind)
  UAMC(02)                1.00   -nan(ind)  -nan(ind)  -nan(ind)  -nan(ind)  -nan(ind)  -nan(ind)  -nan(ind)  -nan(ind)  -nan(ind)
  UAMC(03)                1.00   -nan(ind)  -nan(ind)  -nan(ind)  -nan(ind)  -nan(ind)  -nan(ind)  -nan(ind)  -nan(ind)  -nan(ind)
  UAMC(04)                1.00   -nan(ind)  -nan(ind)  -nan(ind)  -nan(ind)  -nan(ind)  -nan(ind)  -nan(ind)  -nan(ind)  -nan(ind)
  UAMC(05)                1.00   -nan(ind)  -nan(ind)  -nan(ind)  -nan(ind)  -nan(ind)  -nan(ind)  -nan(ind)  -nan(ind)  -nan(ind)
  UAMC(06)                1.00   -nan(ind)  -nan(ind)  -nan(ind)  -nan(ind)  -nan(ind)  -nan(ind)  -nan(ind)  -nan(ind)  -nan(ind)
  UAMC(07)                1.00   -nan(ind)  -nan(ind)  -nan(ind)  -nan(ind)  -nan(ind)  -nan(ind)  -nan(ind)  -nan(ind)  -nan(ind)
  UAMC(10)                1.00   -nan(ind)  -nan(ind)  -nan(ind)  -nan(ind)  -nan(ind)  -nan(ind)  -nan(ind)  -nan(ind)  -nan(ind)
  UAMC(11)                1.00   -nan(ind)  -nan(ind)  -nan(ind)  -nan(ind)  -nan(ind)  -nan(ind)  -nan(ind)  -nan(ind)  -nan(ind)
  UAMC(12)                1.00   -nan(ind)  -nan(ind)  -nan(ind)  -nan(ind)  -nan(ind)  -nan(ind)  -nan(ind)  -nan(ind)  -nan(ind)
  UAMC(13)                1.00   -nan(ind)  -nan(ind)  -nan(ind)  -nan(ind)  -nan(ind)  -nan(ind)  -nan(ind)  -nan(ind)  -nan(ind)
  UAMC(14)                1.00   -nan(ind)  -nan(ind)  -nan(ind)  -nan(ind)  -nan(ind)  -nan(ind)  -nan(ind)  -nan(ind)  -nan(ind)
  UAMC(15)                1.00   -nan(ind)  -nan(ind)  -nan(ind)  -nan(ind)  -nan(ind)  -nan(ind)  -nan(ind)  -nan(ind)  -nan(ind)
  UAMC(17)                1.00   -nan(ind)  -nan(ind)  -nan(ind)  -nan(ind)  -nan(ind)  -nan(ind)  -nan(ind)  -nan(ind)  -nan(ind)
  UAMC(20)                1.00   -nan(ind)  -nan(ind)  -nan(ind)  -nan(ind)  -nan(ind)  -nan(ind)  -nan(ind)  -nan(ind)  -nan(ind)
  UAMC(21)                1.00   -nan(ind)  -nan(ind)  -nan(ind)  -nan(ind)  -nan(ind)  -nan(ind)  -nan(ind)  -nan(ind)  -nan(ind)
  UAMC(22)                1.00   -nan(ind)  -nan(ind)  -nan(ind)  -nan(ind)  -nan(ind)  -nan(ind)  -nan(ind)  -nan(ind)  -nan(ind)
  UAMC(23)                1.00   -nan(ind)  -nan(ind)  -nan(ind)  -nan(ind)  -nan(ind)  -nan(ind)  -nan(ind)  -nan(ind)  -nan(ind)
  UAMC(24)                1.00   -nan(ind)  -nan(ind)  -nan(ind)  -nan(ind)  -nan(ind)  -nan(ind)  -nan(ind)  -nan(ind)  -nan(ind)
  UAMC(25)                1.00   -nan(ind)  -nan(ind)  -nan(ind)  -nan(ind)  -nan(ind)  -nan(ind)  -nan(ind)  -nan(ind)  -nan(ind)
  UAMC(26)                1.00   -nan(ind)  -nan(ind)  -nan(ind)  -nan(ind)  -nan(ind)  -nan(ind)  -nan(ind)  -nan(ind)  -nan(ind)
  UAMC(27)                1.00   -nan(ind)  -nan(ind)  -nan(ind)  -nan(ind)  -nan(ind)  -nan(ind)  -nan(ind)  -nan(ind)  -nan(ind)
  
  
  *************************
  Conduit Surcharge Summary
  *************************
  
  No conduits were surcharged.
  

  Analysis begun on:  Sat Nov 30 08:11:58 2019
  Analysis ended on:  Sat Nov 30 08:11:58 2019
  Total elapsed time: < 1 sec