
  EPA STORM WATER MANAGEMENT MODEL - VERSION 5.1 (Build 5.1.013)
  --------------------------------------------------------------

  Scenario Run :  BASE 
   Oshkosh RR CIP Study 
  
  
  *************
  Element Count
  *************
  Number of rain gages ...... 14
  Number of subcatchments ... 100
  Number of nodes ........... 158
  Number of links ........... 150
  Number of pollutants ...... 0
  Number of land uses ....... 0
  
  
  ****************
  Raingage Summary
  ****************
                                                      Data       Recording
  Name                 Data Source                    Type       Interval 
  ------------------------------------------------------------------------
  HUFF-1Q-12HR         RN_5                           CUMULATIVE  40 min.
  HUFF-1Q-1HR          RN_1                           CUMULATIVE   3 min.
  HUFF-1Q-2HR          RN_2                           CUMULATIVE   6 min.
  HUFF-1Q-30MIN        RN_4                           CUMULATIVE   1 min.
  HUFF-1Q-3HR          RN_3                           CUMULATIVE  10 min.
  HUFF-1Q-3HR_100YR    RN_14                          CUMULATIVE  10 min.
  HUFF-1Q-6HR          RN_12                          CUMULATIVE  20 min.
  HUFF-1Q-POINT        RN_0                           CUMULATIVE   1 min.
  HUFF-1Q-PT-1HR-100YR RN_15                          CUMULATIVE   3 min.
  HUFF-2Q-12HR         RN_11                          CUMULATIVE  40 min.
  HUFF-2Q-POINT        RN_6                           CUMULATIVE  20 min.
  HUFF-3Q-24HR         RN_13                          CUMULATIVE  80 min.
  HUFF-3Q-POINT        RN_7                           CUMULATIVE  20 min.
  HUFF-4Q-POINT        RN_8                           CUMULATIVE  20 min.
  
  
  ********************
  Subcatchment Summary
  ********************
  Name                       Area     Width   %Imperv    %Slope Rain Gage            Outlet              
  -----------------------------------------------------------------------------------------------------------
  03-102_1                   1.44    781.20     71.00    1.0600 HUFF-1Q-PT-1HR-100YR 03-102              
  03-107_1                   0.77    144.04     72.30    0.8500 HUFF-1Q-PT-1HR-100YR 03-107              
  03-119_1                   4.21    334.08     70.10    0.3100 HUFF-1Q-PT-1HR-100YR 03-119              
  03-125_1                   1.50    190.29     51.80    1.0000 HUFF-1Q-PT-1HR-100YR 03-125              
  03-128_1                   3.17    275.30     48.10    1.1000 HUFF-1Q-PT-1HR-100YR 03-128              
  03-137_1                   3.15    284.57     54.80    9.6500 HUFF-1Q-PT-1HR-100YR 03-137              
  03-139_1                   0.96    175.79     85.20    0.4800 HUFF-1Q-PT-1HR-100YR 03-139              
  03-160_1                   2.93    196.17     47.30    0.4300 HUFF-1Q-PT-1HR-100YR 03-160              
  03-164_1                   2.35    452.84     96.50    0.8200 HUFF-1Q-PT-1HR-100YR 03-164              
  03-168_1                   0.81    182.58     68.70    1.0200 HUFF-1Q-PT-1HR-100YR 03-168              
  03-170_1                   1.91    259.53     66.70    1.3600 HUFF-1Q-PT-1HR-100YR 03-170              
  03-184_1                   2.62    236.05     40.20    0.4000 HUFF-1Q-PT-1HR-100YR 03-184              
  03-185_1                   1.29    283.84     86.40    1.0600 HUFF-1Q-PT-1HR-100YR 03-185              
  03-186_1                   3.00    226.13     49.30    0.2900 HUFF-1Q-PT-1HR-100YR 03-186              
  03-188_1                   3.68    623.48     64.30    2.0400 HUFF-1Q-PT-1HR-100YR 03-188              
  03-233_1                   8.28    841.50     78.60    0.4500 HUFF-1Q-PT-1HR-100YR 03-233              
  03-234_1                   6.29    525.94     76.70    0.4200 HUFF-1Q-PT-1HR-100YR 03-234              
  03-239_1                   4.05    280.17     52.60    0.9200 HUFF-1Q-PT-1HR-100YR 03-239              
  03-242_1                   0.91    193.18     70.00    1.4000 HUFF-1Q-PT-1HR-100YR 03-242              
  03-268_1                   1.71    223.34     72.00    0.8600 HUFF-1Q-PT-1HR-100YR 03-268              
  03-270_1                   3.92    536.32     52.70    0.8600 HUFF-1Q-PT-1HR-100YR 03-270              
  03-273_1                   3.48    225.99     79.90    0.2200 HUFF-1Q-PT-1HR-100YR 03-273              
  03-273_2                   0.94    127.35     79.90    0.2200 HUFF-1Q-PT-1HR-100YR 03-273              
  03-274_1                   1.52    320.41     72.00    1.2200 HUFF-1Q-PT-1HR-100YR 03-274              
  03-280_1                   3.66    547.85     57.10    1.0900 HUFF-1Q-PT-1HR-100YR 03-280              
  03-281_1                   0.99    160.85     62.60    1.0600 HUFF-1Q-PT-1HR-100YR 03-281              
  03-283_1                   2.94    344.68     49.70    1.0200 HUFF-1Q-PT-1HR-100YR 03-283              
  03-284_1                   0.95    154.65     62.70    0.7100 HUFF-1Q-PT-1HR-100YR 03-284              
  03-287_1                   3.81    305.55     40.70    0.2200 HUFF-1Q-PT-1HR-100YR 03-287              
  03-289_1                   0.36     97.48     73.40    0.5100 HUFF-1Q-PT-1HR-100YR 03-289              
  03-290_1                   1.81    373.49     77.50    0.6500 HUFF-1Q-PT-1HR-100YR 03-290              
  03-294_1                   2.60    315.21     65.20    1.9900 HUFF-1Q-PT-1HR-100YR 03-294              
  03-295_1                   1.29    257.45     64.10    0.8700 HUFF-1Q-PT-1HR-100YR 03-295              
  03-298_1                   1.06    186.28     68.50    0.7800 HUFF-1Q-PT-1HR-100YR 03-298              
  03-306_1                   0.29     83.63     54.90    0.5200 HUFF-1Q-PT-1HR-100YR 03-306              
  03-309_1                   8.51    653.22     32.40    0.8600 HUFF-1Q-PT-1HR-100YR 03-309              
  03-334_1                   1.94    178.36     55.60    0.9900 HUFF-1Q-PT-1HR-100YR 03-334              
  03-335_1                   1.27    178.18     63.30    0.6400 HUFF-1Q-PT-1HR-100YR 03-335              
  03-382_1                   0.39    112.89     52.80    0.9300 HUFF-1Q-PT-1HR-100YR 03-382              
  03-384_1                   1.24    152.68     65.90    1.0100 HUFF-1Q-PT-1HR-100YR 03-384              
  03-386_1                   0.17    101.71     44.10    0.4500 HUFF-1Q-PT-1HR-100YR 03-386              
  03-394_1                   3.60    538.91     62.90    0.3000 HUFF-1Q-PT-1HR-100YR 03-394              
  03-408_1                   1.61    238.10     71.30    0.9000 HUFF-1Q-PT-1HR-100YR 03-408              
  03-420_1                   2.40    277.19     42.80    0.5600 HUFF-1Q-PT-1HR-100YR 03-420              
  03-60_1                    3.22    324.61     52.40    0.2200 HUFF-1Q-PT-1HR-100YR 03-60               
  03-63_1                    0.88    133.26     94.00    0.4600 HUFF-1Q-PT-1HR-100YR 03-63               
  03-67_1                    0.73    119.82     87.80    0.2300 HUFF-1Q-PT-1HR-100YR 03-67               
  03-68_1                    0.98    214.76     95.60    0.6700 HUFF-1Q-PT-1HR-100YR 03-68               
  03-71_1                    1.32    289.60     96.80    0.6200 HUFF-1Q-PT-1HR-100YR 03-71               
  03-75_1                    1.30    281.24     85.40    3.0900 HUFF-1Q-PT-1HR-100YR 03-75               
  03-77_1                    1.20    198.43     91.40    2.1800 HUFF-1Q-PT-1HR-100YR 03-77               
  03-80_1                    0.79    167.93     33.90    0.2800 HUFF-1Q-PT-1HR-100YR 03-80               
  09-232_1                   5.80    663.55     53.40    0.8100 HUFF-1Q-PT-1HR-100YR 09-232              
  09-233_1                   0.89    166.68     64.20    1.3100 HUFF-1Q-PT-1HR-100YR 09-233              
  09-234_1                   1.88    305.56     67.40    0.5900 HUFF-1Q-PT-1HR-100YR 09-234              
  09-235_1                   2.96    392.44     51.00    0.5300 HUFF-1Q-PT-1HR-100YR 09-235              
  09-237_1                   2.12    315.00     57.90    0.2400 HUFF-1Q-PT-1HR-100YR 09-237              
  09-238_1                   6.76    569.46     60.30    0.5300 HUFF-1Q-PT-1HR-100YR 09-238              
  09-240_1                   1.82    253.16     65.60    0.1400 HUFF-1Q-PT-1HR-100YR 09-240              
  09-242_1                   1.70    248.60     69.20    0.6900 HUFF-1Q-PT-1HR-100YR 09-242              
  09-245_1                   0.87    133.40     74.30    0.6400 HUFF-1Q-PT-1HR-100YR 09-245              
  09-246_1                   0.98    139.11     81.80    1.0000 HUFF-1Q-PT-1HR-100YR 09-246              
  09-247_1                   4.21    373.09     48.20    0.4200 HUFF-1Q-PT-1HR-100YR 09-247              
  09-248_1                   2.66    257.85     49.50    0.5400 HUFF-1Q-PT-1HR-100YR 09-248              
  09-249_1                   4.54    462.51     47.20    0.5600 HUFF-1Q-PT-1HR-100YR 09-249              
  09-250_1                   1.54    243.19     58.60    0.4700 HUFF-1Q-PT-1HR-100YR 09-250              
  09-253_1                   0.70    142.16     62.20    0.2300 HUFF-1Q-PT-1HR-100YR 09-253              
  09-254_1                   0.59     75.53     68.40    0.4000 HUFF-1Q-PT-1HR-100YR 09-254              
  09-255_1                   0.70    102.50     66.40    0.5600 HUFF-1Q-PT-1HR-100YR 09-255              
  09-256_1                   2.60    411.54     47.50    0.8600 HUFF-1Q-PT-1HR-100YR 09-256              
  09-257_1                   1.21    203.76     74.30    1.0300 HUFF-1Q-PT-1HR-100YR 09-257              
  09-261_1                   4.51    510.55     46.50    1.1400 HUFF-1Q-PT-1HR-100YR 09-261              
  09-262_1                   0.82    134.47     57.00    0.8100 HUFF-1Q-PT-1HR-100YR 09-262              
  09-263_1                   4.54    427.42     47.90    0.5500 HUFF-1Q-PT-1HR-100YR 09-263              
  09-264.1_1                 3.33    245.29     42.00    0.2900 HUFF-1Q-PT-1HR-100YR 09-264.1            
  09-264_1                   0.92    257.56     59.50    1.3400 HUFF-1Q-PT-1HR-100YR 09-264              
  09-265_1                   1.35    233.67     59.00    0.9000 HUFF-1Q-PT-1HR-100YR 09-265              
  09-266_1                   2.71    226.04     55.40    0.6700 HUFF-1Q-PT-1HR-100YR 09-266              
  09-267_1                   0.96    185.53     65.80    0.7400 HUFF-1Q-PT-1HR-100YR 09-267              
  09-269_1                   0.96    150.00     63.20    0.6400 HUFF-1Q-PT-1HR-100YR 09-269              
  09-270_1                   7.03    429.50     23.50    0.5200 HUFF-1Q-PT-1HR-100YR 09-270              
  09-272_1                   1.23    192.90     61.00    0.1000 HUFF-1Q-PT-1HR-100YR 09-272              
  09-272_2                   1.26    211.28     59.00    1.6000 HUFF-1Q-PT-1HR-100YR 09-272              
  09-297_1                   0.62    252.56     88.50    2.7100 HUFF-1Q-PT-1HR-100YR 09-297              
  09-344_1                   2.75    231.90     49.60    0.2700 HUFF-1Q-PT-1HR-100YR 09-344              
  09-357_1                   3.05    217.29     39.10    0.3100 HUFF-1Q-PT-1HR-100YR 09-357              
  09-443_1                   0.53    125.28     54.90    1.2800 HUFF-1Q-PT-1HR-100YR 09-443              
  09-485_1                   6.93    466.56     29.30    0.7100 HUFF-1Q-PT-1HR-100YR 09-485              
  09-489_1                   1.09    189.97     57.20    0.1800 HUFF-1Q-PT-1HR-100YR 09-489              
  09-500_1                   1.06    154.96     54.00    0.6000 HUFF-1Q-PT-1HR-100YR 09-500              
  13-3014_1                  2.25    598.68     50.50    1.2100 HUFF-1Q-PT-1HR-100YR 13-3014             
  13-341_1                   3.84    448.65     53.80    2.3400 HUFF-1Q-PT-1HR-100YR 13-341              
  13-346_1                   3.26    527.16     50.40    1.7000 HUFF-1Q-PT-1HR-100YR 13-346              
  13-348_1                   3.62    398.10     45.10    0.5500 HUFF-1Q-PT-1HR-100YR 13-348              
  13-362_1                   3.78    291.23     34.70    4.5600 HUFF-1Q-PT-1HR-100YR 13-362              
  13-798_1                   1.48    143.27     40.20    0.5800 HUFF-1Q-PT-1HR-100YR 13-798              
  13-804_1                   1.70    249.97     40.50    0.7900 HUFF-1Q-PT-1HR-100YR 13-804              
  13-805_1                   1.16    151.58     63.10    0.9600 HUFF-1Q-PT-1HR-100YR 13-805              
  P_MH1_1                    5.05    443.20     76.50    0.5800 HUFF-1Q-PT-1HR-100YR P_MH1               
  P_MH2_1                    0.92    381.90    100.00    1.6200 HUFF-1Q-PT-1HR-100YR P_MH2               
  
  
  ************
  Node Summary
  ************
                                           Invert      Max.    Ponded    External
  Name                 Type                 Elev.     Depth      Area    Inflow  
  -------------------------------------------------------------------------------
  03-102               JUNCTION            748.73      4.30       0.0
  03-103               JUNCTION            748.36      3.00       0.0
  03-107               JUNCTION            747.63      5.04       0.0
  03-110               JUNCTION            745.61      3.22       0.0
  03-119               JUNCTION            744.31      5.55       0.0
  03-119.1             JUNCTION            743.57      7.45       0.0
  03-125               JUNCTION            749.88      3.35       0.0
  03-128               JUNCTION            749.11      3.81       0.0
  03-135               JUNCTION            746.59      5.40       0.0
  03-137               JUNCTION            747.60      3.90       0.0
  03-139               JUNCTION            748.02      3.50       0.0
  03-160               JUNCTION            747.45      6.00       0.0
  03-161               JUNCTION            746.35      4.36       0.0
  03-164               JUNCTION            745.48      4.13       0.0
  03-168               JUNCTION            745.38      4.76       0.0
  03-169               JUNCTION            743.87      5.28       0.0
  03-170               JUNCTION            743.33      6.32       0.0
  03-173               JUNCTION            743.28      4.82       0.0
  03-184               JUNCTION            747.01      3.20       0.0
  03-185               JUNCTION            746.14      3.34       0.0
  03-186               JUNCTION            746.95      2.70       0.0
  03-188               JUNCTION            746.43      2.95       0.0
  03-193               JUNCTION            746.19      5.90       0.0
  03-232               JUNCTION            744.84      5.10       0.0
  03-233               JUNCTION            745.38      4.08       0.0
  03-234               JUNCTION            747.90      2.75       0.0
  03-239               JUNCTION            747.42      4.90       0.0
  03-242               JUNCTION            749.74      4.45       0.0
  03-243               JUNCTION            751.77      4.12       0.0
  03-267               JUNCTION            746.55      3.85       0.0
  03-268               JUNCTION            746.23      4.62       0.0
  03-269               JUNCTION            747.10      3.60       0.0
  03-270               JUNCTION            749.91      4.92       0.0
  03-271               JUNCTION            749.52      3.71       0.0
  03-273               JUNCTION            752.06      5.49       0.0
  03-274               JUNCTION            750.27      5.41       0.0
  03-275               JUNCTION            748.84      5.42       0.0
  03-276               JUNCTION            750.64      6.08       0.0
  03-277               JUNCTION            748.12      5.52       0.0
  03-278               JUNCTION            748.26      5.71       0.0
  03-279               JUNCTION            749.15      4.79       0.0
  03-280               JUNCTION            749.19      4.57       0.0
  03-281               JUNCTION            747.21      5.09       0.0
  03-282               JUNCTION            747.42      4.96       0.0
  03-283               JUNCTION            745.83      4.95       0.0
  03-284               JUNCTION            745.82      4.50       0.0
  03-285               JUNCTION            745.52      4.34       0.0
  03-286               JUNCTION            745.60      4.59       0.0
  03-287               JUNCTION            744.60      5.66       0.0
  03-288               JUNCTION            746.16      3.54       0.0
  03-289               JUNCTION            744.81      4.40       0.0
  03-290               JUNCTION            744.84      4.80       0.0
  03-291               JUNCTION            744.75      4.38       0.0
  03-292               JUNCTION            743.96      5.75       0.0
  03-293               JUNCTION            743.85      5.80       0.0
  03-294               JUNCTION            753.63      3.90       0.0
  03-295               JUNCTION            751.28      4.35       0.0
  03-296               JUNCTION            748.85      4.69       0.0
  03-298               JUNCTION            746.84      4.70       0.0
  03-306               JUNCTION            745.13      5.50       0.0
  03-307               JUNCTION            746.21      5.38       0.0
  03-309               JUNCTION            746.63      5.21       0.0
  03-334               JUNCTION            745.99      3.54       0.0
  03-335               JUNCTION            749.20      3.59       0.0
  03-382               JUNCTION            748.34      5.00       0.0
  03-384               JUNCTION            747.76      5.00       0.0
  03-385               JUNCTION            747.40      4.76       0.0
  03-386               JUNCTION            747.98      4.00       0.0
  03-387               JUNCTION            747.62      4.03       0.0
  03-394               JUNCTION            746.13      3.13       0.0
  03-408               JUNCTION            747.20      2.98       0.0
  03-419               JUNCTION            747.83      3.65       0.0
  03-420               JUNCTION            748.58      2.30       0.0
  03-60                JUNCTION            746.52      4.87       0.0
  03-63                JUNCTION            746.36      4.50       0.0
  03-65                JUNCTION            746.25      4.57       0.0
  03-67                JUNCTION            745.74      5.10       0.0
  03-68                JUNCTION            745.61      5.59       0.0
  03-70                JUNCTION            745.28      5.45       0.0
  03-71                JUNCTION            745.20      5.40       0.0
  03-73                JUNCTION            744.94      5.15       0.0
  03-74                JUNCTION            744.58      6.17       0.0
  03-75                JUNCTION            744.46      6.51       0.0
  03-77                JUNCTION            744.63      6.32       0.0
  03-79                JUNCTION            743.54      7.90       0.0
  03-80                JUNCTION            743.08      6.77       0.0
  03-81                JUNCTION            742.82      6.87       0.0
  09-231               JUNCTION            752.46      3.67       0.0
  09-232               JUNCTION            752.82      3.80       0.0
  09-233               JUNCTION            753.06      5.40       0.0
  09-234               JUNCTION            754.50      3.85       0.0
  09-235               JUNCTION            755.05      2.87       0.0
  09-237               JUNCTION            754.05      4.25       0.0
  09-238               JUNCTION            753.27      4.28       0.0
  09-239               JUNCTION            752.91      5.28       0.0
  09-240               JUNCTION            754.91      3.61       0.0
  09-241               JUNCTION            754.28      5.07       0.0
  09-242               JUNCTION            755.31      3.41       0.0
  09-244               JUNCTION            753.55      6.19       0.0
  09-245               JUNCTION            753.92      4.86       0.0
  09-246               JUNCTION            752.45      5.21       0.0
  09-247               JUNCTION            753.07      4.81       0.0
  09-248               JUNCTION            754.60      5.35       0.0
  09-249               JUNCTION            753.91      4.10       0.0
  09-250               JUNCTION            753.47      5.49       0.0
  09-251               JUNCTION            754.10      4.79       0.0
  09-252               JUNCTION            753.27      6.06       0.0
  09-253               JUNCTION            753.60      5.75       0.0
  09-254               JUNCTION            752.97      5.93       0.0
  09-255               JUNCTION            752.68      6.30       0.0
  09-256               JUNCTION            752.14      5.73       0.0
  09-257               JUNCTION            751.97      5.92       0.0
  09-258               JUNCTION            751.54      5.36       0.0
  09-259               JUNCTION            751.36      5.38       0.0
  09-260               JUNCTION            757.19      3.91       0.0
  09-261               JUNCTION            756.61      3.07       0.0
  09-262               JUNCTION            756.32      4.00       0.0
  09-263               JUNCTION            755.17      3.80       0.0
  09-264               JUNCTION            754.92      5.36       0.0
  09-264.1             JUNCTION            754.08      5.06       0.0
  09-265               JUNCTION            755.66      3.15       0.0
  09-266               JUNCTION            759.35      4.17       0.0
  09-267               JUNCTION            758.36      3.95       0.0
  09-269               JUNCTION            757.23      4.34       0.0
  09-270               JUNCTION            756.59      4.25       0.0
  09-272               JUNCTION            755.78      4.18       0.0
  09-297               JUNCTION            755.68      2.21       0.0
  09-344               JUNCTION            753.47      5.70       0.0
  09-355               JUNCTION            754.57      3.30       0.0
  09-357               JUNCTION            755.23      2.81       0.0
  09-443               JUNCTION            757.75      3.50       0.0
  09-485               JUNCTION            757.78      3.05       0.0
  09-489               JUNCTION            759.32      3.57       0.0
  09-500               JUNCTION            754.58      3.62       0.0
  13-3014              JUNCTION            760.96      3.00       0.0
  13-3016              JUNCTION            759.44      3.96       0.0
  13-341               JUNCTION            757.20      4.38       0.0
  13-343               JUNCTION            755.71      4.83       0.0
  13-344               JUNCTION            755.36      5.58       0.0
  13-345               JUNCTION            758.39      4.56       0.0
  13-346               JUNCTION            757.69      3.55       0.0
  13-347               JUNCTION            758.92      4.12       0.0
  13-348               JUNCTION            759.75      4.19       0.0
  13-349               JUNCTION            760.70      2.83       0.0
  13-362               JUNCTION            761.02      3.42       0.0
  13-798               JUNCTION            761.08      3.18       0.0
  13-804               JUNCTION            758.18      3.60       0.0
  13-805               JUNCTION            757.46      2.76       0.0
  P_MH1                JUNCTION            747.19      2.73       0.0
  P_MH2                JUNCTION            747.64      2.43       0.0
  03-119_OUT           OUTFALL             743.47      1.00       0.0
  03-173_OUT           OUTFALL             743.27      1.00       0.0
  03-293_OUT           OUTFALL             743.51      1.00       0.0
  03-306_OUT           OUTFALL             745.18      2.25       0.0
  03-382_OUT           OUTFALL             747.78      0.83       0.0
  03-385_OUT           OUTFALL             747.26      0.83       0.0
  03-387_OUT           OUTFALL             747.04      0.83       0.0
  03-81_OUT            OUTFALL             742.58      2.00       0.0
  
  
  ************
  Link Summary
  ************
  Name             From Node        To Node          Type            Length    %Slope Roughness
  ---------------------------------------------------------------------------------------------
  C_03-102         03-102           03-419           CONDUIT          362.0    0.2486    0.0140
  C_03-103         03-103           03-139           CONDUIT           44.8    0.7598    0.0140
  C_03-107         03-107           03-268           CONDUIT          290.0    0.4828    0.0140
  C_03-110         03-110           03-119           CONDUIT          217.3    0.6122    0.0140
  C_03-119         03-119           03-119.1         CONDUIT          121.2    0.6108    0.0140
  C_03-119.1       03-119.1         03-119_OUT       CONDUIT          137.9    0.0725    0.0140
  C_03-125         03-125           03-309           CONDUIT          230.5    1.0456    0.0110
  C_03-128         03-128           03-275           CONDUIT          271.8    0.0846    0.0140
  C_03-135         03-135           03-63            CONDUIT          340.9    0.0675    0.0140
  C_03-137         03-137           03-135           CONDUIT          282.4    0.3577    0.0140
  C_03-139         03-139           03-269           CONDUIT          300.2    0.3065    0.0140
  C_03-160         03-160           03-298           CONDUIT          270.9    0.1698    0.0140
  C_03-161         03-161           03-185           CONDUIT          150.7    0.1393    0.0140
  C_03-164         03-164           03-306           CONDUIT          110.3    0.3173    0.0140
  C_03-168         03-168           03-169           CONDUIT          283.9    0.5318    0.0240
  C_03-169         03-169           03-170           CONDUIT          199.2    0.2710    0.0140
  C_03-170         03-170           03-173           CONDUIT           97.4    0.0513    0.0140
  C_03-173         03-173           03-173_OUT       CONDUIT           16.2    0.0619    0.0240
  C_03-184         03-184           03-185           CONDUIT          249.9    0.3482    0.0140
  C_03-185         03-185           03-164           CONDUIT          301.5    0.1990    0.0240
  C_03-186         03-186           03-169           CONDUIT          292.5    0.2632    0.0140
  C_03-188         03-188           03-169           CONDUIT           41.1    0.6077    0.0140
  C_03-193         03-193           03-168           CONDUIT          289.1    0.2801    0.0240
  C_03-232         03-232           03-74            CONDUIT          137.5    0.1818    0.0150
  C_03-233         03-233           03-232           CONDUIT          355.9    0.1517    0.0150
  C_03-234         03-234           03-135           CONDUIT          376.3    0.3481    0.0140
  C_03-239         03-239           03-193           CONDUIT           21.1    3.6905    0.0140
  C_03-242         03-242           03-239           CONDUIT          268.9    0.8665    0.0140
  C_03-243         03-243           03-242           CONDUIT          263.5    0.8463    0.0140
  C_03-267         03-267           03-394           CONDUIT          347.7    0.1208    0.0140
  C_03-268         03-268           03-267           CONDUIT           88.8   -0.3603    0.0140
  C_03-269         03-269           03-267           CONDUIT           67.3    0.8175    0.0140
  C_03-270         03-270           03-271           CONDUIT          247.3    0.1213    0.0140
  C_03-271         03-271           03-128           CONDUIT           66.4    0.6176    0.0140
  C_03-273         03-273           03-274           CONDUIT          281.1    0.6191    0.0140
  C_03-274         03-274           03-275           CONDUIT          247.3    0.5784    0.0140
  C_03-275         03-275           03-282           CONDUIT          357.0    0.4089    0.0140
  C_03-276         03-276           03-280           CONDUIT          252.5    0.5545    0.0140
  C_03-277         03-277           03-281           CONDUIT          273.3    0.3073    0.0140
  C_03-278         03-278           03-277           CONDUIT           15.0    0.9334    0.0140
  C_03-279         03-279           03-282           CONDUIT          282.4    0.5914    0.0140
  C_03-280         03-280           03-279           CONDUIT           14.6    0.2747    0.0140
  C_03-281         03-281           03-284           CONDUIT          330.0    0.3970    0.0140
  C_03-282         03-282           03-283           CONDUIT          311.6    0.5102    0.0140
  C_03-283         03-283           03-288           CONDUIT          244.3   -0.1351    0.0140
  C_03-284         03-284           03-285           CONDUIT          239.1    0.1255    0.0140
  C_03-285         03-285           03-286           CONDUIT           30.7   -0.2605    0.0240
  C_03-286         03-286           03-290           CONDUIT          357.6    0.2125    0.0240
  C_03-287         03-287           03-289           CONDUIT          237.7   -0.1304    0.0240
  C_03-288         03-288           03-287           CONDUIT           35.7    4.3690    0.0240
  C_03-289         03-289           03-291           CONDUIT          153.5    0.0391    0.0240
  C_03-290         03-290           03-293           CONDUIT          230.6    0.4294    0.0240
  C_03-291         03-291           03-292           CONDUIT          185.1    0.4267    0.0240
  C_03-292         03-292           03-293           CONDUIT           30.0    0.3668    0.0240
  C_03-293         03-293           03-293_OUT       CONDUIT           78.6    0.4326    0.0240
  C_03-294         03-294           03-295           CONDUIT          230.8    0.9055    0.0140
  C_03-295         03-295           03-296           CONDUIT          279.1    0.6628    0.0140
  C_03-296         03-296           03-160           CONDUIT           25.8    4.7822    0.0140
  C_03-298         03-298           03-161           CONDUIT          154.9    0.2970    0.0140
  C_03-306         03-306           03-306_OUT       CONDUIT           62.9    0.3181    0.0240
  C_03-307         03-307           03-193           CONDUIT           43.9   -0.9795    0.0240
  C_03-309         03-309           03-307           CONDUIT          214.3    0.1960    0.0240
  C_03-334         03-334           03-168           CONDUIT           50.3    0.4373    0.0140
  C_03-335         03-335           03-334           CONDUIT          411.8    0.7796    0.0140
  C_03-382         03-382           03-382_OUT       CONDUIT           55.2    1.0147    0.0240
  C_03-384         03-384           03-385           CONDUIT           35.8    1.0054    0.0240
  C_03-385         03-385           03-385_OUT       CONDUIT           15.8    0.8878    0.0240
  C_03-386         03-386           03-387           CONDUIT           35.6    1.0110    0.0240
  C_03-387         03-387           03-387_OUT       CONDUIT           58.0    1.0006    0.0240
  C_03-394         03-394           03-110           CONDUIT           85.6    0.6072    0.0140
  C_03-408         03-408           03-135           CONDUIT          223.7    0.2727    0.0140
  C_03-419         03-419           03-103           CONDUIT          128.7   -0.2796    0.0140
  C_03-420         03-420           03-419           CONDUIT          130.0    0.5768    0.0110
  C_03-60          03-60            03-67            CONDUIT          342.8    0.2275    0.0140
  C_03-63          03-63            03-65            CONDUIT           37.7    0.2916    0.0140
  C_03-65          03-65            03-71            CONDUIT          397.4    0.2642    0.0140
  C_03-67          03-67            03-68            CONDUIT          205.4    0.0633    0.0140
  C_03-68          03-68            03-70            CONDUIT          198.1    0.1666    0.0140
  C_03-70          03-70            03-73            CONDUIT          179.1    0.1563    0.0140
  C_03-71          03-71            03-77            CONDUIT          368.4    0.1819    0.0140
  C_03-73          03-73            03-232           CONDUIT           30.9    0.3233    0.0150
  C_03-74          03-74            03-75            CONDUIT           22.5    0.5333    0.0150
  C_03-75          03-75            03-79            CONDUIT          122.1    0.9257    0.0150
  C_03-77          03-77            03-75            CONDUIT           10.8   -1.4885    0.0150
  C_03-79          03-79            03-80            CONDUIT          191.8    0.2034    0.0150
  C_03-80          03-80            03-81            CONDUIT          170.0    0.1530    0.0150
  C_03-81          03-81            03-81_OUT        CONDUIT          192.5    0.1507    0.0150
  C_09-231         09-231           03-243           CONDUIT           53.3    1.2954    0.0240
  C_09-232         09-232           09-231           CONDUIT           27.7    1.2997    0.0140
  C_09-233         09-233           09-232           CONDUIT          299.4    0.0801    0.0140
  C_09-234         09-234           09-241           CONDUIT          331.5    0.0664    0.0140
  C_09-235         09-235           09-237           CONDUIT          374.4    0.1843    0.0140
  C_09-237         09-237           09-244           CONDUIT          355.9    0.2135    0.0140
  C_09-238         09-238           09-239           CONDUIT          192.1    0.1562    0.0140
  C_09-239         09-239           03-270           CONDUIT          336.1    0.8925    0.0140
  C_09-240         09-240           09-241           CONDUIT          358.9    0.1755    0.0140
  C_09-241         09-241           09-247           CONDUIT          191.6    0.6315    0.0140
  C_09-242         09-242           09-244           CONDUIT          342.1    0.3888    0.0140
  C_09-244         09-244           09-344           CONDUIT           25.6    0.3125    0.0140
  C_09-245         09-245           09-246           CONDUIT          313.6    0.4241    0.0140
  C_09-246         09-246           03-273           CONDUIT           40.7    0.8348    0.0150
  C_09-247         09-247           09-251           CONDUIT          176.0   -0.5852    0.0140
  C_09-248         09-248           09-249           CONDUIT          329.1    0.2309    0.0140
  C_09-249         09-249           09-250           CONDUIT          330.3    0.1332    0.0140
  C_09-250         09-250           09-252           CONDUIT          277.3    0.0505    0.0140
  C_09-251         09-251           09-253           CONDUIT          259.4    0.1928    0.0140
  C_09-252         09-252           09-254           CONDUIT          386.3    0.0777    0.0140
  C_09-253         09-253           09-255           CONDUIT          400.7    0.2296    0.0140
  C_09-254         09-254           09-256           CONDUIT          311.1    0.3021    0.0140
  C_09-255         09-255           09-257           CONDUIT          311.1    0.2153    0.0140
  C_09-256         09-256           09-259           CONDUIT          274.9    0.2838    0.0140
  C_09-257         09-257           09-258           CONDUIT          258.9    0.1545    0.0140
  C_09-258         09-258           03-276           CONDUIT           80.2    1.1227    0.0140
  C_09-259         09-259           03-278           CONDUIT          316.3    0.9863    0.0140
  C_09-260         09-260           09-248           CONDUIT          358.8    0.3735    0.0140
  C_09-261         09-261           09-262           CONDUIT          291.8    0.0823    0.0140
  C_09-262         09-262           09-250           CONDUIT          357.9    0.7962    0.0140
  C_09-263         09-263           09-264           CONDUIT          346.3    0.0578    0.0140
  C_09-264         09-264           09-264.1         CONDUIT          161.5    0.5264    0.0140
  C_09-264.1       09-264.1         09-254           CONDUIT          185.2    0.5399    0.0140
  C_09-265         09-265           09-264           CONDUIT          303.2    0.1253    0.0140
  C_09-266         09-266           09-260           CONDUIT          357.8    0.5870    0.0140
  C_09-267         09-267           09-269           CONDUIT          350.0    0.3228    0.0140
  C_09-269         09-269           09-262           CONDUIT          349.7    0.2602    0.0140
  C_09-270         09-270           09-272           CONDUIT          398.7    0.1605    0.0140
  C_09-272         09-272           09-264           CONDUIT          371.0    0.2318    0.0140
  C_09-297         09-297           09-239           CONDUIT          117.8    2.3007    0.0140
  C_09-344         09-344           09-255           CONDUIT          315.8    0.1013    0.0140
  C_09-355         09-355           09-237           CONDUIT           55.9    0.9308    0.0110
  C_09-357         09-357           09-355           CONDUIT          158.3    0.4169    0.0110
  C_09-443         09-443           09-272           CONDUIT          471.8    0.3370    0.0140
  C_09-485         09-485           09-269           CONDUIT          203.5    0.2703    0.0140
  C_09-489         09-489           09-485           CONDUIT          450.2    0.3421    0.0110
  C_09-500         09-500           09-234           CONDUIT           51.3    0.1560    0.0110
  C_13-3014        13-3014          13-3016          CONDUIT          472.6    0.3216    0.0140
  C_13-3016        13-3016          13-347           CONDUIT           29.2    0.7190    0.0140
  C_13-341         13-341           13-343           CONDUIT          367.0    0.4060    0.0140
  C_13-343         13-343           13-344           CONDUIT           73.3    0.4778    0.0150
  C_13-344         13-344           09-248           CONDUIT          194.8    0.4107    0.0140
  C_13-345         13-345           13-341           CONDUIT          366.1    0.3114    0.0140
  C_13-346         13-346           13-345           CONDUIT          265.6   -0.2636    0.0140
  C_13-347         13-347           13-345           CONDUIT          154.2    0.3114    0.0140
  C_13-348         13-348           13-347           CONDUIT          208.3    0.3985    0.0140
  C_13-349         13-349           13-348           CONDUIT           60.4    0.7947    0.0140
  C_13-362         13-362           13-348           CONDUIT          185.7    0.2961    0.0140
  C_13-798         13-798           13-349           CONDUIT          282.4    0.1346    0.0140
  C_13-804         13-804           13-805           CONDUIT          119.3    0.6033    0.0240
  C_13-805         13-805           09-260           CONDUIT           35.7    0.5882    0.0140
  C_P_MH1          P_MH1            03-394           CONDUIT          354.8    0.2988    0.0140
  C_P_MH2          P_MH2            P_MH1            CONDUIT          149.7    0.3007    0.0140
  
  
  *********************
  Cross Section Summary
  *********************
                                        Full     Full     Hyd.     Max.   No. of     Full
  Conduit          Shape               Depth     Area     Rad.    Width  Barrels     Flow
  ---------------------------------------------------------------------------------------
  C_03-102         CIRCULAR             1.00     0.79     0.25     1.00        1     1.65
  C_03-103         CIRCULAR             1.50     1.77     0.38     1.50        1     8.50
  C_03-107         CIRCULAR             1.50     1.77     0.38     1.50        1     6.78
  C_03-110         CIRCULAR             1.00     0.79     0.25     1.00        1     2.59
  C_03-119         CIRCULAR             1.00     0.79     0.25     1.00        1     2.59
  C_03-119.1       CIRCULAR             1.00     0.79     0.25     1.00        1     0.89
  C_03-125         CIRCULAR             1.00     0.79     0.25     1.00        1     4.31
  C_03-128         CIRCULAR             2.25     3.98     0.56     2.25        1     8.37
  C_03-135         CIRCULAR             1.50     1.77     0.38     1.50        1     2.53
  C_03-137         CIRCULAR             1.00     0.79     0.25     1.00        1     1.98
  C_03-139         CIRCULAR             1.50     1.77     0.38     1.50        1     5.40
  C_03-160         CIRCULAR             1.50     1.77     0.38     1.50        1     4.02
  C_03-161         CIRCULAR             1.00     0.79     0.25     1.00        1     1.23
  C_03-164         CIRCULAR             1.00     0.79     0.25     1.00        1     1.86
  C_03-168         CIRCULAR             1.00     0.79     0.25     1.00        1     1.41
  C_03-169         CIRCULAR             3.00     7.07     0.75     3.00        1    32.24
  C_03-170         CIRCULAR             3.00     7.07     0.75     3.00        1    14.03
  C_03-173         CIRCULAR             1.00     0.79     0.25     1.00        1     0.48
  C_03-184         CIRCULAR             1.00     0.79     0.25     1.00        1     1.95
  C_03-185         CIRCULAR             1.00     0.79     0.25     1.00        1     0.86
  C_03-186         CIRCULAR             1.25     1.23     0.31     1.25        1     3.08
  C_03-188         CIRCULAR             1.25     1.23     0.31     1.25        1     4.68
  C_03-193         CIRCULAR             1.00     0.79     0.25     1.00        1     1.02
  C_03-232         CIRCULAR             1.00     0.79     0.25     1.00        1     1.32
  C_03-233         CIRCULAR             0.83     0.54     0.21     0.83        1     0.73
  C_03-234         CIRCULAR             0.67     0.35     0.17     0.67        1     0.67
  C_03-239         CIRCULAR             1.25     1.23     0.31     1.25        1    11.52
  C_03-242         CIRCULAR             1.25     1.23     0.31     1.25        1     5.58
  C_03-243         CIRCULAR             1.25     1.23     0.31     1.25        1     5.52
  C_03-267         CIRCULAR             1.00     0.79     0.25     1.00        1     1.15
  C_03-268         CIRCULAR             1.50     1.77     0.38     1.50        1     5.85
  C_03-269         CIRCULAR             1.50     1.77     0.38     1.50        1     8.82
  C_03-270         CIRCULAR             1.25     1.23     0.31     1.25        1     2.09
  C_03-271         CIRCULAR             2.25     3.98     0.56     2.25        1    22.60
  C_03-273         CIRCULAR             1.50     1.77     0.38     1.50        1     7.67
  C_03-274         CIRCULAR             1.50     1.77     0.38     1.50        1     7.42
  C_03-275         CIRCULAR             2.50     4.91     0.63     2.50        1    24.36
  C_03-276         CIRCULAR             2.75     5.94     0.69     2.75        1    36.57
  C_03-277         CIRCULAR             3.50     9.62     0.88     3.50        1    51.79
  C_03-278         CIRCULAR             3.50     9.62     0.88     3.50        1    90.26
  C_03-279         CIRCULAR             2.75     5.94     0.69     2.75        1    37.77
  C_03-280         CIRCULAR             2.75     5.94     0.69     2.75        1    25.74
  C_03-281         CIRCULAR             3.50     9.62     0.88     3.50        1    58.86
  C_03-282         CIRCULAR             3.50     9.62     0.88     3.50        1    66.73
  C_03-283         CIRCULAR             3.50     9.62     0.88     3.50        1    34.33
  C_03-284         CIRCULAR             3.50     9.62     0.88     3.50        1    33.09
  C_03-285         CIRCULAR             1.00     0.79     0.25     1.00        1     0.98
  C_03-286         CIRCULAR             1.00     0.79     0.25     1.00        1     0.89
  C_03-287         CIRCULAR             1.00     0.79     0.25     1.00        1     0.70
  C_03-288         CIRCULAR             1.00     0.79     0.25     1.00        1     4.03
  C_03-289         CIRCULAR             1.00     0.79     0.25     1.00        1     0.38
  C_03-290         CIRCULAR             1.00     0.79     0.25     1.00        1     1.26
  C_03-291         CIRCULAR             1.00     0.79     0.25     1.00        1     1.26
  C_03-292         CIRCULAR             1.00     0.79     0.25     1.00        1     1.17
  C_03-293         CIRCULAR             1.00     0.79     0.25     1.00        1     1.27
  C_03-294         CIRCULAR             1.25     1.23     0.31     1.25        1     5.71
  C_03-295         CIRCULAR             1.50     1.77     0.38     1.50        1     7.94
  C_03-296         CIRCULAR             1.50     1.77     0.38     1.50        1    21.33
  C_03-298         CIRCULAR             1.00     0.79     0.25     1.00        1     1.80
  C_03-306         CIRCULAR             2.25     3.98     0.56     2.25        1     9.46
  C_03-307         CIRCULAR             1.25     1.23     0.31     1.25        1     3.46
  C_03-309         CIRCULAR             1.25     1.23     0.31     1.25        1     1.55
  C_03-334         CIRCULAR             1.00     0.79     0.25     1.00        1     2.19
  C_03-335         CIRCULAR             1.00     0.79     0.25     1.00        1     2.92
  C_03-382         CIRCULAR             0.83     0.54     0.21     0.83        1     1.18
  C_03-384         CIRCULAR             0.67     0.35     0.17     0.67        1     0.67
  C_03-385         CIRCULAR             0.83     0.54     0.21     0.83        1     1.11
  C_03-386         CIRCULAR             0.67     0.35     0.17     0.67        1     0.67
  C_03-387         CIRCULAR             0.83     0.54     0.21     0.83        1     1.17
  C_03-394         CIRCULAR             1.00     0.79     0.25     1.00        1     2.58
  C_03-408         CIRCULAR             1.00     0.79     0.25     1.00        1     1.73
  C_03-419         CIRCULAR             1.00     0.79     0.25     1.00        1     1.75
  C_03-420         CIRCULAR             1.00     0.79     0.25     1.00        1     3.20
  C_03-60          CIRCULAR             1.00     0.79     0.25     1.00        1     1.58
  C_03-63          CIRCULAR             1.50     1.77     0.38     1.50        1     5.27
  C_03-65          CIRCULAR             1.25     1.23     0.31     1.25        1     3.08
  C_03-67          CIRCULAR             1.00     0.79     0.25     1.00        1     0.83
  C_03-68          CIRCULAR             1.00     0.79     0.25     1.00        1     1.35
  C_03-70          CIRCULAR             1.00     0.79     0.25     1.00        1     1.31
  C_03-71          CIRCULAR             1.25     1.23     0.31     1.25        1     2.56
  C_03-73          CIRCULAR             1.00     0.79     0.25     1.00        1     1.76
  C_03-74          CIRCULAR             2.00     3.14     0.50     2.00        1    14.32
  C_03-75          CIRCULAR             2.00     3.14     0.50     2.00        1    18.86
  C_03-77          CIRCULAR             1.25     1.23     0.31     1.25        1     6.83
  C_03-79          CIRCULAR             2.00     3.14     0.50     2.00        1     8.84
  C_03-80          CIRCULAR             2.00     3.14     0.50     2.00        1     7.67
  C_03-81          CIRCULAR             2.00     3.14     0.50     2.00        1     7.61
  C_09-231         CIRCULAR             1.00     0.79     0.25     1.00        1     2.20
  C_09-232         CIRCULAR             1.25     1.23     0.31     1.25        1     6.84
  C_09-233         CIRCULAR             1.25     1.23     0.31     1.25        1     1.70
  C_09-234         CIRCULAR             1.50     1.77     0.38     1.50        1     2.51
  C_09-235         CIRCULAR             1.25     1.23     0.31     1.25        1     2.57
  C_09-237         CIRCULAR             1.75     2.41     0.44     1.75        1     6.80
  C_09-238         CIRCULAR             1.25     1.23     0.31     1.25        1     2.37
  C_09-239         CIRCULAR             1.25     1.23     0.31     1.25        1     5.67
  C_09-240         CIRCULAR             1.25     1.23     0.31     1.25        1     2.51
  C_09-241         CIRCULAR             1.75     2.41     0.44     1.75        1    11.69
  C_09-242         CIRCULAR             1.25     1.23     0.31     1.25        1     3.74
  C_09-244         CIRCULAR             2.00     3.14     0.50     2.00        1    11.74
  C_09-245         CIRCULAR             1.25     1.23     0.31     1.25        1     3.91
  C_09-246         CIRCULAR             1.25     1.23     0.31     1.25        1     5.12
  C_09-247         CIRCULAR             1.75     2.41     0.44     1.75        1    11.26
  C_09-248         CIRCULAR             2.75     5.94     0.69     2.75        1    23.60
  C_09-249         CIRCULAR             3.00     7.07     0.75     3.00        1    22.61
  C_09-250         CIRCULAR             3.50     9.62     0.88     3.50        1    20.99
  C_09-251         CIRCULAR             2.25     3.98     0.56     2.25        1    12.63
  C_09-252         CIRCULAR             3.50     9.62     0.88     3.50        1    26.04
  C_09-253         CIRCULAR             2.25     3.98     0.56     2.25        1    13.78
  C_09-254         CIRCULAR             3.50     9.62     0.88     3.50        1    51.35
  C_09-255         CIRCULAR             2.75     5.94     0.69     2.75        1    22.79
  C_09-256         CIRCULAR             3.50     9.62     0.88     3.50        1    49.77
  C_09-257         CIRCULAR             2.75     5.94     0.69     2.75        1    19.30
  C_09-258         CIRCULAR             2.75     5.94     0.69     2.75        1    52.03
  C_09-259         CIRCULAR             3.50     9.62     0.88     3.50        1    92.78
  C_09-260         CIRCULAR             1.50     1.77     0.38     1.50        1     5.96
  C_09-261         CIRCULAR             1.50     1.77     0.38     1.50        1     2.80
  C_09-262         CIRCULAR             1.75     2.41     0.44     1.75        1    13.13
  C_09-263         CIRCULAR             1.25     1.23     0.31     1.25        1     1.44
  C_09-264         CIRCULAR             2.00     3.14     0.50     2.00        1    15.24
  C_09-264.1       CIRCULAR             2.00     3.14     0.50     2.00        1    15.44
  C_09-265         CIRCULAR             1.25     1.23     0.31     1.25        1     2.12
  C_09-266         CIRCULAR             1.25     1.23     0.31     1.25        1     4.60
  C_09-267         CIRCULAR             1.25     1.23     0.31     1.25        1     3.41
  C_09-269         CIRCULAR             1.50     1.77     0.38     1.50        1     4.98
  C_09-270         CIRCULAR             1.25     1.23     0.31     1.25        1     2.40
  C_09-272         CIRCULAR             1.50     1.77     0.38     1.50        1     4.70
  C_09-297         CIRCULAR             1.00     0.79     0.25     1.00        1     5.02
  C_09-344         CIRCULAR             2.00     3.14     0.50     2.00        1     6.69
  C_09-355         CIRCULAR             1.00     0.79     0.25     1.00        1     4.06
  C_09-357         CIRCULAR             1.00     0.79     0.25     1.00        1     2.72
  C_09-443         CIRCULAR             1.00     0.79     0.25     1.00        1     1.92
  C_09-485         CIRCULAR             1.25     1.23     0.31     1.25        1     3.12
  C_09-489         CIRCULAR             1.00     0.79     0.25     1.00        1     2.46
  C_09-500         CIRCULAR             1.25     1.23     0.31     1.25        1     3.02
  C_13-3014        CIRCULAR             1.25     1.23     0.31     1.25        1     3.40
  C_13-3016        CIRCULAR             1.25     1.23     0.31     1.25        1     5.09
  C_13-341         CIRCULAR             2.50     4.91     0.63     2.50        1    24.27
  C_13-343         CIRCULAR             1.00     0.79     0.25     1.00        1     2.13
  C_13-344         CIRCULAR             2.75     5.94     0.69     2.75        1    31.47
  C_13-345         CIRCULAR             1.75     2.41     0.44     1.75        1     8.21
  C_13-346         CIRCULAR             1.25     1.23     0.31     1.25        1     3.08
  C_13-347         CIRCULAR             1.75     2.41     0.44     1.75        1     8.21
  C_13-348         CIRCULAR             1.50     1.77     0.38     1.50        1     6.16
  C_13-349         CIRCULAR             1.25     1.23     0.31     1.25        1     5.35
  C_13-362         CIRCULAR             1.25     1.23     0.31     1.25        1     3.26
  C_13-798         CIRCULAR             1.00     0.79     0.25     1.00        1     1.21
  C_13-804         CIRCULAR             0.67     0.35     0.17     0.67        1     0.52
  C_13-805         CIRCULAR             1.00     0.79     0.25     1.00        1     2.54
  C_P_MH1          CIRCULAR             1.00     0.79     0.25     1.00        1     1.81
  C_P_MH2          CIRCULAR             1.00     0.79     0.25     1.00        1     1.81
  
  
  
  *********************************************************
  NOTE: The summary statistics displayed in this report are
  based on results found at every computational time step,  
  not just on results from each reporting time step.
  *********************************************************
  
  ****************
  Analysis Options
  ****************
  Flow Units ............... CFS
  Process Models:
    Rainfall/Runoff ........ YES
    RDII ................... NO
    Snowmelt ............... NO
    Groundwater ............ NO
    Flow Routing ........... YES
    Ponding Allowed ........ NO
    Water Quality .......... NO
  Infiltration Method ...... HORTON
  Flow Routing Method ...... DYNWAVE
  Surcharge Method ......... EXTRAN
  Starting Date ............ 12/31/1994 22:00:00
  Ending Date .............. 01/01/1995 12:00:00
  Antecedent Dry Days ...... 0.0
  Report Time Step ......... 00:01:00
  Wet Time Step ............ 00:01:00
  Dry Time Step ............ 00:01:00
  Routing Time Step ........ 10.00 sec
  Variable Time Step ....... YES
  Maximum Trials ........... 4
  Number of Threads ........ 1
  Head Tolerance ........... 0.005000 ft
  
  
  **************************        Volume         Depth
  Runoff Quantity Continuity     acre-feet        inches
  **************************     ---------       -------
  Total Precipitation ......        38.127         1.960
  Evaporation Loss .........         0.000         0.000
  Infiltration Loss ........        16.521         0.849
  Surface Runoff ...........        21.371         1.099
  Final Storage ............         0.279         0.014
  Continuity Error (%) .....        -0.117
  
  
  **************************        Volume        Volume
  Flow Routing Continuity        acre-feet      10^6 gal
  **************************     ---------     ---------
  Dry Weather Inflow .......         0.000         0.000
  Wet Weather Inflow .......        21.371         6.964
  Groundwater Inflow .......         0.000         0.000
  RDII Inflow ..............         0.000         0.000
  External Inflow ..........         0.284         0.093
  External Outflow .........         3.312         1.079
  Flooding Loss ............        18.310         5.967
  Evaporation Loss .........         0.000         0.000
  Exfiltration Loss ........         0.000         0.000
  Initial Stored Volume ....         0.012         0.004
  Final Stored Volume ......         0.392         0.128
  Continuity Error (%) .....        -1.602
  
  
  *************************
  Highest Continuity Errors
  *************************
  Node 03-292 (-74.15%)
  Node 03-293 (22.53%)
  Node 03-287 (-15.43%)
  Node 03-291 (9.38%)
  Node 03-74 (6.07%)
  
  
  ***************************
  Time-Step Critical Elements
  ***************************
  Link C_03-63 (23.22%)
  Link C_03-306 (21.11%)
  Link C_03-307 (10.16%)
  Link C_03-385 (5.90%)
  Link C_03-188 (2.91%)
  
  
  ********************************
  Highest Flow Instability Indexes
  ********************************
  Link C_03-119.1 (80)
  Link C_03-74 (77)
  Link C_03-77 (76)
  Link C_03-73 (75)
  Link C_03-394 (72)
  
  
  *************************
  Routing Time Step Summary
  *************************
  Minimum Time Step           :     0.50 sec
  Average Time Step           :     5.51 sec
  Maximum Time Step           :    10.00 sec
  Percent in Steady State     :    -0.00
  Average Iterations per Step :     3.50
  Percent Not Converging      :    69.91
  
  
  ***************************
  Subcatchment Runoff Summary
  ***************************
  
  ------------------------------------------------------------------------------------------------------------------------------
                            Total      Total      Total      Total     Imperv       Perv      Total       Total     Peak  Runoff
                           Precip      Runon       Evap      Infil     Runoff     Runoff     Runoff      Runoff   Runoff   Coeff
  Subcatchment                 in         in         in         in         in         in         in    10^6 gal      CFS
  ------------------------------------------------------------------------------------------------------------------------------
  03-102_1                   1.96       0.00       0.00       0.57       1.38       0.00       1.38        0.05     6.96   0.705
  03-107_1                   1.96       0.00       0.00       0.54       1.40       0.00       1.40        0.03     3.40   0.716
  03-119_1                   1.96       0.00       0.00       0.59       1.36       0.00       1.36        0.15    11.05   0.692
  03-125_1                   1.96       0.00       0.00       0.94       1.00       0.00       1.00        0.04     4.80   0.513
  03-128_1                   1.96       0.00       0.00       1.02       0.93       0.00       0.93        0.08     8.83   0.476
  03-137_1                   1.96       0.00       0.00       0.89       1.06       0.00       1.06        0.09    11.60   0.543
  03-139_1                   1.96       0.00       0.00       0.29       1.65       0.00       1.65        0.04     4.39   0.843
  03-160_1                   1.96       0.00       0.00       1.03       0.92       0.00       0.92        0.07     6.06   0.467
  03-164_1                   1.96       0.00       0.00       0.07       1.87       0.00       1.87        0.12    12.96   0.955
  03-168_1                   1.96       0.00       0.00       0.61       1.33       0.00       1.33        0.03     3.60   0.680
  03-170_1                   1.96       0.00       0.00       0.65       1.29       0.00       1.29        0.07     7.80   0.660
  03-184_1                   1.96       0.00       0.00       1.17       0.78       0.00       0.78        0.06     5.56   0.397
  03-185_1                   1.96       0.00       0.00       0.27       1.68       0.00       1.68        0.06     6.97   0.855
  03-186_1                   1.96       0.00       0.00       0.99       0.95       0.00       0.95        0.08     6.07   0.487
  03-188_1                   1.96       0.00       0.00       0.70       1.25       0.00       1.25        0.12    15.54   0.637
  03-233_1                   1.96       0.00       0.00       0.42       1.52       0.00       1.52        0.34    27.49   0.777
  03-234_1                   1.96       0.00       0.00       0.46       1.49       0.00       1.49        0.25    18.79   0.758
  03-239_1                   1.96       0.00       0.00       0.93       1.02       0.00       1.02        0.11    10.75   0.520
  03-242_1                   1.96       0.00       0.00       0.59       1.36       0.00       1.36        0.03     4.15   0.693
  03-268_1                   1.96       0.00       0.00       0.55       1.40       0.00       1.40        0.06     6.90   0.712
  03-270_1                   1.96       0.00       0.00       0.93       1.02       0.00       1.02        0.11    12.69   0.522
  03-273_1                   1.96       0.00       0.00       0.39       1.55       0.00       1.55        0.15     8.46   0.788
  03-273_2                   1.96       0.00       0.00       0.39       1.55       0.00       1.55        0.04     3.03   0.789
  03-274_1                   1.96       0.00       0.00       0.55       1.40       0.00       1.40        0.06     7.09   0.713
  03-280_1                   1.96       0.00       0.00       0.84       1.11       0.00       1.11        0.11    13.17   0.565
  03-281_1                   1.96       0.00       0.00       0.73       1.21       0.00       1.21        0.03     3.89   0.620
  03-283_1                   1.96       0.00       0.00       0.99       0.96       0.00       0.96        0.08     8.96   0.492
  03-284_1                   1.96       0.00       0.00       0.73       1.22       0.00       1.22        0.03     3.57   0.620
  03-287_1                   1.96       0.00       0.00       1.16       0.79       0.00       0.79        0.08     6.77   0.402
  03-289_1                   1.96       0.00       0.00       0.52       1.42       0.00       1.42        0.01     1.67   0.727
  03-290_1                   1.96       0.00       0.00       0.44       1.50       0.00       1.50        0.07     8.40   0.767
  03-294_1                   1.96       0.00       0.00       0.68       1.26       0.00       1.26        0.09    10.59   0.645
  03-295_1                   1.96       0.00       0.00       0.70       1.24       0.00       1.24        0.04     5.27   0.635
  03-298_1                   1.96       0.00       0.00       0.62       1.33       0.00       1.33        0.04     4.42   0.678
  03-306_1                   1.96       0.00       0.00       0.88       1.07       0.00       1.07        0.01     1.03   0.544
  03-309_1                   1.96       0.00       0.00       1.32       0.63       0.00       0.63        0.15    16.61   0.321
  03-334_1                   1.96       0.00       0.00       0.87       1.08       0.00       1.08        0.06     6.00   0.550
  03-335_1                   1.96       0.00       0.00       0.72       1.23       0.00       1.23        0.04     4.58   0.626
  03-382_1                   1.96       0.00       0.00       0.93       1.03       0.00       1.03        0.01     1.38   0.524
  03-384_1                   1.96       0.00       0.00       0.67       1.28       0.00       1.28        0.04     4.72   0.652
  03-386_1                   1.96       0.00       0.00       1.10       0.86       0.00       0.86        0.00     0.50   0.438
  03-394_1                   1.96       0.00       0.00       0.73       1.22       0.00       1.22        0.12    11.58   0.622
  03-408_1                   1.96       0.00       0.00       0.56       1.38       0.00       1.38        0.06     6.74   0.705
  03-420_1                   1.96       0.00       0.00       1.12       0.83       0.00       0.83        0.05     6.06   0.423
  03-60_1                    1.96       0.00       0.00       0.93       1.01       0.00       1.01        0.09     7.28   0.518
  03-63_1                    1.96       0.00       0.00       0.12       1.82       0.00       1.82        0.04     3.93   0.929
  03-67_1                    1.96       0.00       0.00       0.24       1.70       0.00       1.70        0.03     2.75   0.868
  03-68_1                    1.96       0.00       0.00       0.09       1.85       0.00       1.85        0.05     5.41   0.946
  03-71_1                    1.96       0.00       0.00       0.06       1.88       0.00       1.88        0.07     7.28   0.957
  03-75_1                    1.96       0.00       0.00       0.29       1.66       0.00       1.66        0.06     7.41   0.846
  03-77_1                    1.96       0.00       0.00       0.17       1.77       0.00       1.77        0.06     6.86   0.905
  03-80_1                    1.96       0.00       0.00       1.30       0.66       0.00       0.66        0.01     1.73   0.336
  09-232_1                   1.96       0.00       0.00       0.91       1.04       0.00       1.04        0.16    18.05   0.528
  09-233_1                   1.96       0.00       0.00       0.70       1.25       0.00       1.25        0.03     3.72   0.636
  09-234_1                   1.96       0.00       0.00       0.64       1.31       0.00       1.31        0.07     7.31   0.667
  09-235_1                   1.96       0.00       0.00       0.96       0.99       0.00       0.99        0.08     8.74   0.505
  09-237_1                   1.96       0.00       0.00       0.83       1.12       0.00       1.12        0.06     6.18   0.572
  09-238_1                   1.96       0.00       0.00       0.78       1.17       0.00       1.17        0.21    18.67   0.596
  09-240_1                   1.96       0.00       0.00       0.67       1.27       0.00       1.27        0.06     4.81   0.648
  09-242_1                   1.96       0.00       0.00       0.60       1.34       0.00       1.34        0.06     6.67   0.684
  09-245_1                   1.96       0.00       0.00       0.50       1.44       0.00       1.44        0.03     3.61   0.735
  09-246_1                   1.96       0.00       0.00       0.36       1.59       0.00       1.59        0.04     4.53   0.809
  09-247_1                   1.96       0.00       0.00       1.02       0.93       0.00       0.93        0.11     9.99   0.476
  09-248_1                   1.96       0.00       0.00       0.99       0.96       0.00       0.96        0.07     6.99   0.489
  09-249_1                   1.96       0.00       0.00       1.03       0.91       0.00       0.91        0.11    11.84   0.467
  09-250_1                   1.96       0.00       0.00       0.81       1.14       0.00       1.14        0.05     5.19   0.580
  09-253_1                   1.96       0.00       0.00       0.74       1.21       0.00       1.21        0.02     2.38   0.615
  09-254_1                   1.96       0.00       0.00       0.62       1.33       0.00       1.33        0.02     1.98   0.676
  09-255_1                   1.96       0.00       0.00       0.66       1.29       0.00       1.29        0.02     2.59   0.657
  09-256_1                   1.96       0.00       0.00       1.03       0.92       0.00       0.92        0.07     7.92   0.470
  09-257_1                   1.96       0.00       0.00       0.50       1.44       0.00       1.44        0.05     5.49   0.735
  09-261_1                   1.96       0.00       0.00       1.05       0.90       0.00       0.90        0.11    13.09   0.460
  09-262_1                   1.96       0.00       0.00       0.84       1.11       0.00       1.11        0.02     2.93   0.564
  09-263_1                   1.96       0.00       0.00       1.02       0.93       0.00       0.93        0.11    11.60   0.474
  09-264.1_1                 1.96       0.00       0.00       1.14       0.81       0.00       0.81        0.07     6.17   0.415
  09-264_1                   1.96       0.00       0.00       0.79       1.16       0.00       1.16        0.03     3.68   0.590
  09-265_1                   1.96       0.00       0.00       0.80       1.14       0.00       1.14        0.04     5.02   0.584
  09-266_1                   1.96       0.00       0.00       0.87       1.07       0.00       1.07        0.08     7.49   0.548
  09-267_1                   1.96       0.00       0.00       0.67       1.28       0.00       1.28        0.03     3.92   0.651
  09-269_1                   1.96       0.00       0.00       0.72       1.23       0.00       1.23        0.03     3.57   0.625
  09-270_1                   1.96       0.00       0.00       1.50       0.46       0.00       0.46        0.09     9.55   0.232
  09-272_1                   1.96       0.00       0.00       0.76       1.18       0.00       1.18        0.04     3.06   0.603
  09-272_2                   1.96       0.00       0.00       0.80       1.15       0.00       1.15        0.04     4.87   0.584
  09-297_1                   1.96       0.00       0.00       0.23       1.72       0.00       1.72        0.03     3.73   0.879
  09-344_1                   1.96       0.00       0.00       0.99       0.96       0.00       0.96        0.07     5.82   0.490
  09-357_1                   1.96       0.00       0.00       1.19       0.76       0.00       0.76        0.06     5.46   0.386
  09-443_1                   1.96       0.00       0.00       0.88       1.07       0.00       1.07        0.02     1.95   0.544
  09-485_1                   1.96       0.00       0.00       1.39       0.57       0.00       0.57        0.11    11.85   0.290
  09-489_1                   1.96       0.00       0.00       0.84       1.11       0.00       1.11        0.03     3.18   0.566
  09-500_1                   1.96       0.00       0.00       0.90       1.05       0.00       1.05        0.03     3.41   0.534
  13-3014_1                  1.96       0.00       0.00       0.97       0.98       0.00       0.98        0.06     7.70   0.501
  13-341_1                   1.96       0.00       0.00       0.91       1.04       0.00       1.04        0.11    13.39   0.533
  13-346_1                   1.96       0.00       0.00       0.97       0.98       0.00       0.98        0.09    10.92   0.499
  13-348_1                   1.96       0.00       0.00       1.08       0.87       0.00       0.87        0.09     9.35   0.446
  13-362_1                   1.96       0.00       0.00       1.28       0.67       0.00       0.67        0.07     8.79   0.344
  13-798_1                   1.96       0.00       0.00       1.17       0.78       0.00       0.78        0.03     3.42   0.398
  13-804_1                   1.96       0.00       0.00       1.17       0.79       0.00       0.79        0.04     4.44   0.401
  13-805_1                   1.96       0.00       0.00       0.72       1.22       0.00       1.22        0.04     4.32   0.624
  P_MH1_1                    1.96       0.00       0.00       0.46       1.48       0.00       1.48        0.20    16.38   0.756
  P_MH2_1                    1.96       0.00       0.00       0.00       1.94       0.00       1.94        0.05     6.21   0.991
  
  
  ******************
  Node Depth Summary
  ******************
  
  ---------------------------------------------------------------------------------
                                 Average  Maximum  Maximum  Time of Max    Reported
                                   Depth    Depth      HGL   Occurrence   Max Depth
  Node                 Type         Feet     Feet     Feet  days hr:min        Feet
  ---------------------------------------------------------------------------------
  03-102               JUNCTION     0.82     4.30   753.03     0  00:01        4.30
  03-103               JUNCTION     0.66     3.00   751.36     0  00:04        2.96
  03-107               JUNCTION     0.87     5.04   752.67     0  00:04        3.60
  03-110               JUNCTION     2.37     3.22   748.83     0  00:01        3.22
  03-119               JUNCTION     3.80     5.55   749.86     0  00:01        5.55
  03-119.1             JUNCTION     4.30     7.45   751.02     0  00:00        5.32
  03-125               JUNCTION     0.65     3.35   753.23     0  00:02        3.35
  03-128               JUNCTION     0.81     3.81   752.92     0  00:06        3.81
  03-135               JUNCTION     1.76     5.40   751.99     0  00:03        4.26
  03-137               JUNCTION     0.97     3.90   751.50     0  00:01        3.90
  03-139               JUNCTION     0.78     3.50   751.52     0  00:04        3.31
  03-160               JUNCTION     1.49     6.00   753.45     0  00:03        6.00
  03-161               JUNCTION     2.04     4.36   750.71     0  00:02        4.15
  03-164               JUNCTION     2.47     4.13   749.61     0  00:00        4.13
  03-168               JUNCTION     2.83     4.76   750.14     0  00:02        4.76
  03-169               JUNCTION     3.83     5.28   749.15     0  00:03        4.54
  03-170               JUNCTION     4.36     6.32   749.65     0  00:02        4.91
  03-173               JUNCTION     4.41     4.82   748.10     0  00:02        4.82
  03-184               JUNCTION     1.25     3.20   750.21     0  00:02        3.20
  03-185               JUNCTION     1.99     3.34   749.48     0  00:02        3.34
  03-186               JUNCTION     0.94     2.70   749.65     0  00:03        2.70
  03-188               JUNCTION     1.41     2.95   749.38     0  00:02        2.95
  03-193               JUNCTION     2.73     5.90   752.09     0  00:02        5.89
  03-232               JUNCTION     3.24     5.10   749.94     0  00:02        5.10
  03-233               JUNCTION     2.78     4.08   749.46     0  00:01        4.08
  03-234               JUNCTION     0.89     2.75   750.65     0  00:01        2.75
  03-239               JUNCTION     1.57     4.90   752.32     0  00:02        4.90
  03-242               JUNCTION     1.08     4.45   754.19     0  00:03        4.45
  03-243               JUNCTION     0.81     4.12   755.89     0  00:03        3.09
  03-267               JUNCTION     1.86     3.85   750.40     0  00:03        3.85
  03-268               JUNCTION     2.20     4.62   750.85     0  00:03        4.62
  03-269               JUNCTION     1.33     3.60   750.70     0  00:03        3.60
  03-270               JUNCTION     1.18     4.92   754.83     0  00:02        4.92
  03-271               JUNCTION     0.65     3.71   753.23     0  00:06        3.43
  03-273               JUNCTION     0.98     5.49   757.55     0  00:04        5.49
  03-274               JUNCTION     1.00     5.41   755.68     0  00:03        5.41
  03-275               JUNCTION     0.92     5.42   754.26     0  00:06        3.94
  03-276               JUNCTION     0.57     5.34   755.98     0  00:08        3.83
  03-277               JUNCTION     1.19     5.52   753.64     0  00:09        4.92
  03-278               JUNCTION     1.12     5.71   753.97     0  00:09        4.82
  03-279               JUNCTION     0.73     4.79   753.94     0  00:07        4.50
  03-280               JUNCTION     0.75     4.57   753.76     0  00:08        4.57
  03-281               JUNCTION     1.67     5.09   752.30     0  00:08        5.09
  03-282               JUNCTION     1.48     4.96   752.38     0  00:06        4.48
  03-283               JUNCTION     2.90     4.95   750.78     0  00:05        4.95
  03-284               JUNCTION     2.85     4.50   750.32     0  00:08        4.50
  03-285               JUNCTION     3.05     4.34   749.86     0  00:08        4.34
  03-286               JUNCTION     2.95     4.59   750.19     0  00:08        4.24
  03-287               JUNCTION     4.05     5.66   750.26     0  00:02        5.66
  03-288               JUNCTION     2.44     3.54   749.70     0  00:05        3.54
  03-289               JUNCTION     3.54     4.40   749.21     0  00:03        4.40
  03-290               JUNCTION     3.54     4.80   749.64     0  00:02        4.80
  03-291               JUNCTION     3.47     4.38   749.13     0  00:03        4.38
  03-292               JUNCTION     4.07     5.75   749.71     0  09:50        5.51
  03-293               JUNCTION     4.16     5.80   749.65     0  07:13        5.30
  03-294               JUNCTION     0.33     3.90   757.53     0  00:03        3.90
  03-295               JUNCTION     0.54     4.35   755.63     0  00:03        4.35
  03-296               JUNCTION     1.00     4.69   753.54     0  00:03        4.69
  03-298               JUNCTION     1.83     4.70   751.54     0  00:02        4.70
  03-306               JUNCTION     2.44     5.50   750.63     0  00:00        2.53
  03-307               JUNCTION     2.60     5.38   751.59     0  00:02        5.38
  03-309               JUNCTION     2.26     5.21   751.84     0  00:02        5.21
  03-334               JUNCTION     2.19     3.54   749.53     0  00:02        3.54
  03-335               JUNCTION     0.35     3.59   752.79     0  00:03        3.59
  03-382               JUNCTION     0.10     1.01   749.35     0  00:06        1.01
  03-384               JUNCTION     0.59     5.00   752.76     0  00:02        5.00
  03-385               JUNCTION     0.35     1.45   748.85     0  00:02        1.44
  03-386               JUNCTION     0.06     0.44   748.42     0  00:06        0.44
  03-387               JUNCTION     0.05     0.38   748.00     0  00:06        0.38
  03-394               JUNCTION     1.98     3.13   749.26     0  00:02        3.13
  03-408               JUNCTION     1.07     2.98   750.18     0  00:02        2.98
  03-419               JUNCTION     1.25     3.65   751.48     0  00:02        3.48
  03-420               JUNCTION     0.64     2.30   750.88     0  00:02        2.30
  03-60                JUNCTION     2.06     4.87   751.39     0  00:03        4.87
  03-63                JUNCTION     1.97     4.50   750.86     0  00:03        4.50
  03-65                JUNCTION     2.07     4.57   750.82     0  00:03        4.57
  03-67                JUNCTION     2.69     5.10   750.84     0  00:03        5.10
  03-68                JUNCTION     2.81     5.59   751.20     0  00:03        5.59
  03-70                JUNCTION     2.98     5.45   750.73     0  00:03        5.32
  03-71                JUNCTION     3.03     5.40   750.60     0  00:02        5.40
  03-73                JUNCTION     3.18     5.15   750.09     0  00:02        5.11
  03-74                JUNCTION     3.36     6.17   750.75     0  00:02        6.00
  03-75                JUNCTION     3.48     6.51   750.97     0  00:02        6.12
  03-77                JUNCTION     3.34     6.32   750.95     0  00:02        6.14
  03-79                JUNCTION     4.33     7.90   751.44     0  00:01        6.63
  03-80                JUNCTION     4.70     6.77   749.85     0  00:01        6.42
  03-81                JUNCTION     4.87     6.87   749.69     0  00:00        5.90
  09-231               JUNCTION     0.85     3.67   756.13     0  00:02        3.67
  09-232               JUNCTION     0.82     3.80   756.62     0  00:02        3.80
  09-233               JUNCTION     0.78     5.40   758.46     0  00:02        5.40
  09-234               JUNCTION     0.64     3.85   758.35     0  00:03        3.85
  09-235               JUNCTION     0.50     2.87   757.92     0  00:03        2.87
  09-237               JUNCTION     0.84     4.25   758.30     0  00:04        3.86
  09-238               JUNCTION     0.95     4.28   757.55     0  00:02        4.28
  09-239               JUNCTION     0.83     5.28   758.19     0  00:02        5.28
  09-240               JUNCTION     0.57     3.61   758.52     0  00:04        3.61
  09-241               JUNCTION     0.64     5.07   759.35     0  00:04        3.80
  09-242               JUNCTION     0.38     3.41   758.72     0  00:04        3.41
  09-244               JUNCTION     0.67     6.19   759.74     0  00:05        3.98
  09-245               JUNCTION     0.62     4.86   758.78     0  00:04        4.86
  09-246               JUNCTION     0.85     5.21   757.66     0  00:04        5.21
  09-247               JUNCTION     1.69     4.81   757.88     0  00:03        4.81
  09-248               JUNCTION     0.69     5.08   759.68     0  00:08        3.83
  09-249               JUNCTION     0.77     4.10   758.01     0  00:08        4.10
  09-250               JUNCTION     0.87     4.82   758.29     0  00:08        3.94
  09-251               JUNCTION     0.47     3.86   757.96     0  00:08        2.92
  09-252               JUNCTION     0.80     3.97   757.24     0  00:08        3.60
  09-253               JUNCTION     0.47     4.37   757.97     0  00:08        3.11
  09-254               JUNCTION     0.83     3.43   756.40     0  00:09        3.39
  09-255               JUNCTION     0.61     5.83   758.51     0  00:08        3.48
  09-256               JUNCTION     0.75     3.24   755.38     0  00:09        3.23
  09-257               JUNCTION     0.67     5.92   757.89     0  00:08        3.51
  09-258               JUNCTION     0.43     5.26   756.80     0  00:08        3.16
  09-259               JUNCTION     0.58     2.47   753.83     0  00:11        2.47
  09-260               JUNCTION     0.39     3.91   761.10     0  00:05        3.01
  09-261               JUNCTION     0.54     3.07   759.68     0  00:03        3.07
  09-262               JUNCTION     0.50     4.00   760.32     0  00:04        3.15
[...]
  C_03-306                1.00   0.00  0.00  0.00  1.00  0.00  0.00  0.00  0.00  0.00
  C_03-307                1.00   0.00  0.01  0.00  0.99  0.00  0.00  0.00  0.00  0.00
  C_03-309                1.00   0.00  0.00  0.00  1.00  0.00  0.00  0.00  0.00  0.00
  C_03-334                1.00   0.00  0.00  0.00  0.99  0.00  0.00  0.01  0.00  0.00
  C_03-335                1.00   0.00  0.00  0.00  1.00  0.00  0.00  0.00  0.90  0.00
  C_03-382                1.00   0.00  0.00  0.00  0.98  0.02  0.00  0.00  0.00  0.00
  C_03-384                1.00   0.00  0.00  0.00  1.00  0.00  0.00  0.00  0.90  0.00
  C_03-385                1.83   0.00  0.00  0.00  1.00  0.00  0.00  0.00  0.00  0.00
  C_03-386                1.00   0.00  0.00  0.00  1.00  0.00  0.00  0.00  0.00  0.00
  C_03-387                1.00   0.00  0.24  0.00  0.76  0.00  0.00  0.00  1.00  0.00
  C_03-394                1.00   0.00  0.00  0.00  1.00  0.00  0.00  0.00  0.00  0.00
  C_03-408                1.00   0.00  0.00  0.00  1.00  0.00  0.00  0.00  0.00  0.00
  C_03-419                1.00   0.00  0.00  0.00  0.99  0.00  0.00  0.00  0.00  0.00
  C_03-420                1.00   0.00  0.00  0.00  0.99  0.01  0.00  0.00  0.89  0.00
  C_03-60                 1.00   0.00  0.00  0.00  1.00  0.00  0.00  0.00  0.00  0.00
  C_03-63                 1.05   0.00  0.00  0.00  0.99  0.01  0.00  0.00  0.00  0.00
  C_03-65                 1.00   0.00  0.00  0.00  1.00  0.00  0.00  0.00  0.00  0.00
  C_03-67                 1.00   0.00  0.00  0.00  1.00  0.00  0.00  0.00  0.00  0.00
  C_03-68                 1.00   0.00  0.00  0.00  1.00  0.00  0.00  0.00  0.00  0.00
  C_03-70                 1.00   0.00  0.00  0.00  0.99  0.00  0.00  0.01  0.00  0.00
  C_03-71                 1.00   0.00  0.00  0.00  1.00  0.00  0.00  0.00  0.00  0.00
  C_03-73                 1.02   0.00  0.00  0.00  1.00  0.00  0.00  0.00  0.00  0.00
  C_03-74                 2.24   0.00  0.00  0.00  1.00  0.00  0.00  0.00  0.00  0.00
  C_03-75                 1.00   0.00  0.00  0.00  1.00  0.00  0.00  0.00  0.00  0.00
  C_03-77                 4.43   0.00  0.00  0.00  1.00  0.00  0.00  0.00  0.00  0.00
  C_03-79                 1.00   0.00  0.00  0.00  1.00  0.00  0.00  0.00  0.00  0.00
  C_03-80                 1.00   0.00  0.00  0.00  1.00  0.00  0.00  0.00  0.00  0.00
  C_03-81                 1.00   0.00  0.00  0.00  1.00  0.00  0.00  0.00  0.00  0.00
  C_09-231                1.00   0.00  0.00  0.00  1.00  0.00  0.00  0.00  0.91  0.00
  C_09-232                1.72   0.00  0.00  0.00  0.98  0.02  0.00  0.00  0.92  0.00
  C_09-233                1.00   0.00  0.00  0.00  1.00  0.00  0.00  0.00  0.29  0.00
  C_09-234                1.00   0.00  0.00  0.00  1.00  0.00  0.00  0.00  0.00  0.00
  C_09-235                1.00   0.00  0.00  0.00  0.41  0.00  0.00  0.59  0.00  0.00
  C_09-237                1.00   0.00  0.00  0.00  1.00  0.00  0.00  0.00  0.02  0.00
  C_09-238                1.00   0.00  0.00  0.00  0.22  0.00  0.00  0.78  0.00  0.00
  C_09-239                1.00   0.00  0.00  0.00  1.00  0.00  0.00  0.00  0.94  0.00
  C_09-240                1.00   0.00  0.00  0.00  1.00  0.00  0.00  0.00  0.00  0.00
  C_09-241                1.00   0.00  0.00  0.00  1.00  0.00  0.00  0.00  0.90  0.00
  C_09-242                1.00   0.00  0.00  0.00  0.29  0.00  0.00  0.71  0.02  0.00
  C_09-244                1.84   0.00  0.00  0.00  1.00  0.00  0.00  0.00  0.61  0.00
  C_09-245                1.00   0.00  0.00  0.00  0.22  0.00  0.00  0.78  0.00  0.00
  C_09-246                1.03   0.00  0.00  0.00  0.51  0.01  0.00  0.48  0.19  0.00
  C_09-247                1.00   0.00  0.01  0.00  0.99  0.00  0.00  0.00  0.00  0.00
  C_09-248                1.00   0.00  0.00  0.00  1.00  0.00  0.00  0.00  0.00  0.00
  C_09-249                1.00   0.00  0.00  0.00  1.00  0.00  0.00  0.00  0.66  0.00
  C_09-250                1.00   0.00  0.00  0.00  0.41  0.00  0.00  0.59  0.00  0.00
  C_09-251                1.00   0.00  0.01  0.00  0.99  0.00  0.00  0.00  0.00  0.00
  C_09-252                1.00   0.00  0.00  0.00  1.00  0.00  0.00  0.00  0.48  0.00
  C_09-253                1.00   0.00  0.00  0.00  1.00  0.00  0.00  0.00  0.42  0.00
  C_09-254                1.00   0.00  0.00  0.00  1.00  0.00  0.00  0.00  0.00  0.00
  C_09-255                1.00   0.00  0.00  0.00  0.79  0.00  0.00  0.21  0.00  0.00
  C_09-256                1.00   0.00  0.00  0.00  0.98  0.02  0.00  0.00  0.71  0.00
  C_09-257                1.00   0.00  0.00  0.00  0.06  0.00  0.00  0.94  0.00  0.00
  C_09-258                1.00   0.00  0.00  0.00  0.68  0.32  0.00  0.00  0.97  0.00
  C_09-259                1.00   0.00  0.00  0.00  0.46  0.01  0.00  0.52  0.26  0.00
  C_09-260                1.00   0.00  0.00  0.00  0.15  0.00  0.00  0.85  0.00  0.00
  C_09-261                1.00   0.00  0.00  0.00  0.41  0.00  0.00  0.59  0.00  0.00
  C_09-262                1.00   0.00  0.00  0.00  0.99  0.01  0.00  0.00  0.95  0.00
  C_09-263                1.00   0.00  0.00  0.00  0.39  0.00  0.00  0.61  0.00  0.00
  C_09-264                1.00   0.00  0.00  0.00  0.99  0.01  0.00  0.00  0.05  0.00
  C_09-264.1              1.00   0.00  0.00  0.00  0.98  0.00  0.00  0.02  0.90  0.00
  C_09-265                1.00   0.00  0.00  0.00  0.27  0.00  0.00  0.73  0.00  0.00
  C_09-266                1.00   0.00  0.00  0.00  0.34  0.00  0.00  0.66  0.06  0.00
  C_09-267                1.00   0.00  0.00  0.00  1.00  0.00  0.00  0.00  0.93  0.00
  C_09-269                1.00   0.00  0.00  0.00  1.00  0.00  0.00  0.00  0.00  0.00
  C_09-270                1.00   0.00  0.00  0.00  0.28  0.00  0.00  0.72  0.00  0.00
  C_09-272                1.00   0.00  0.00  0.00  1.00  0.00  0.00  0.00  0.32  0.00
  C_09-297                1.00   0.00  0.00  0.00  0.42  0.01  0.00  0.57  0.15  0.00
  C_09-344                1.00   0.00  0.00  0.00  0.21  0.00  0.00  0.79  0.00  0.00
  C_09-355                1.00   0.00  0.00  0.00  1.00  0.00  0.00  0.00  0.93  0.00
  C_09-357                1.00   0.00  0.00  0.00  0.86  0.14  0.00  0.00  0.03  0.00
  C_09-443                1.00   0.00  0.00  0.00  0.27  0.00  0.00  0.73  0.01  0.00
  C_09-485                1.00   0.00  0.00  0.00  1.00  0.00  0.00  0.00  0.01  0.00
  C_09-489                1.00   0.00  0.00  0.00  1.00  0.00  0.00  0.00  0.25  0.00
  C_09-500                1.00   0.00  0.00  0.00  1.00  0.00  0.00  0.00  0.77  0.00
  C_13-3014               1.00   0.00  0.00  0.00  0.99  0.01  0.00  0.00  0.24  0.00
  C_13-3016               1.44   0.00  0.00  0.00  0.26  0.00  0.00  0.74  0.00  0.00
  C_13-341                1.00   0.00  0.00  0.00  0.99  0.01  0.00  0.00  0.44  0.00
  C_13-343                1.00   0.00  0.00  0.00  0.89  0.11  0.00  0.00  0.81  0.00
  C_13-344                1.00   0.00  0.00  0.00  1.00  0.00  0.00  0.00  0.91  0.00
  C_13-345                1.00   0.00  0.00  0.00  0.28  0.00  0.00  0.71  0.00  0.00
  C_13-346                1.00   0.00  0.00  0.00  1.00  0.00  0.00  0.00  0.00  0.00
  C_13-347                1.00   0.00  0.00  0.00  0.99  0.00  0.00  0.01  0.82  0.00
  C_13-348                1.00   0.00  0.00  0.00  0.99  0.01  0.00  0.00  0.00  0.00
  C_13-349                1.00   0.00  0.00  0.00  0.23  0.00  0.00  0.77  0.01  0.00
  C_13-362                1.00   0.00  0.00  0.00  0.20  0.00  0.00  0.80  0.00  0.00
  C_13-798                1.00   0.00  0.00  0.00  1.00  0.00  0.00  0.00  0.00  0.00
  C_13-804                1.00   0.00  0.00  0.00  1.00  0.00  0.00  0.00  0.33  0.00
  C_13-805                1.00   0.00  0.00  0.00  0.37  0.00  0.00  0.63  0.03  0.00
  C_P_MH1                 1.00   0.00  0.00  0.00  1.00  0.00  0.00  0.00  0.00  0.00
  C_P_MH2                 1.00   0.00  0.00  0.00  1.00  0.00  0.00  0.00  0.86  0.00
  
  
  *************************
  Conduit Surcharge Summary
  *************************
  
  ----------------------------------------------------------------------------
                                                           Hours        Hours 
                         --------- Hours Full --------   Above Full   Capacity
  Conduit                Both Ends  Upstream  Dnstream   Normal Flow   Limited
  ----------------------------------------------------------------------------
  C_03-102                    1.08      1.09      1.42      0.43         0.42
  C_03-103                    1.03      1.03      1.10      0.01         0.01
  C_03-107                    1.25      1.25      1.89      0.01         0.01
  C_03-110                   13.97     13.97     13.98      0.01         0.01
  C_03-119                   13.98     13.98     13.99      0.52         0.51
  C_03-119.1                 13.99     13.99     14.00      1.78         1.80
  C_03-125                    1.22      1.22      1.48      0.01         0.01
  C_03-128                    0.55      0.55      0.55      0.21         0.16
  C_03-135                    1.25      1.26      1.36      0.02         0.01
  C_03-137                    1.09      1.11      1.74      0.04         0.01
  C_03-139                    1.10      1.10      1.47      0.01         0.01
  C_03-160                    1.22      1.22      1.29      0.58         0.58
  C_03-161                   13.96     13.96     13.96      1.15         1.14
  C_03-164                   13.98     13.98     14.00      1.13         1.12
  C_03-168                   13.95     13.95     13.97      0.54         0.54
  C_03-169                   13.95     13.95     13.95      0.01         0.01
  C_03-170                   13.95     13.95     13.95      0.26         0.47
  C_03-173                   13.99     13.99     14.00      1.88         5.94
  C_03-184                    1.41      1.41     13.96      0.01         0.01
  C_03-185                   13.96     13.96     13.98      0.82         0.79
  C_03-186                    0.89      0.89     13.94      0.33         0.36
  C_03-188                    1.46      1.49     13.94      0.30         0.43
  C_03-193                   13.95     13.96     13.95      1.41         1.41
  C_03-232                   13.96     13.96     13.97      1.32         2.75
  C_03-233                   13.96     13.97     13.96      0.34         1.65
  C_03-234                    1.43      1.44     13.96      0.32         0.32
  C_03-239                    1.43      1.43      1.67      0.01         0.01
  C_03-242                    1.18      1.18      1.42      0.01         0.01
  C_03-243                    0.91      0.91      1.19      0.01         0.01
  C_03-267                   13.95     13.95     13.96      1.08         1.06
  C_03-268                    1.70      1.70      1.89      0.16         0.01
  C_03-269                    1.47      1.47      1.70      0.01         0.01
  C_03-270                    0.67      1.04      0.67      1.11         0.67
  C_03-271                    0.48      0.48      0.55      0.01         0.01
  C_03-273                    0.60      0.60      0.67      0.44         0.45
  C_03-274                    0.66      0.68      0.79      0.58         0.61
  C_03-275                    0.49      0.49      0.85      0.01         0.01
  C_03-276                    0.24      0.24      0.38      0.01         0.01
  C_03-277                    0.42      0.42      0.54      0.25         0.24
  C_03-278                    0.38      0.39      0.42      0.01         0.01
  C_03-279                    0.39      0.39      0.60      0.01         0.01
  C_03-280                    0.39      0.39      0.39      0.41         0.37
  C_03-281                    0.56      0.56      2.47      0.17         0.18
  C_03-282                    0.43      0.43      2.70      0.01         0.01
  C_03-283                    2.07      2.07      2.70      0.58         0.01
  C_03-284                    2.56      2.57      2.94      0.60         0.60
  C_03-285                   13.92     13.92     13.93      0.17         0.71
  C_03-286                   13.90     13.92     13.95      1.17         1.69
  C_03-287                   13.95     13.95     13.96      4.13         1.80
  C_03-288                   13.93     13.94     13.96      0.54         0.06
  C_03-289                   13.92     13.95     13.92      6.54         7.05
  C_03-290                   13.94     13.95     13.98      1.21         1.54
  C_03-291                   13.92     13.92     13.98      0.09         0.80
  C_03-292                   13.97     13.98     13.98      1.80         1.89
  C_03-293                   13.98     13.98     14.00      4.89         5.39
  C_03-294                    0.27      0.27      0.44      0.01         0.01
  C_03-295                    0.44      0.44      1.00      0.18         0.19
  C_03-296                    1.08      1.08      1.20      0.01         0.01
  C_03-298                    1.52      1.52     13.96      1.07         1.08
  C_03-306                    0.30      0.30     14.00      0.01         0.01
  C_03-307                    1.67      1.67     13.96      0.01         0.78
  C_03-309                    1.68      1.69     13.96      0.03         0.01
  C_03-334                   13.91     13.91     13.95      0.37         0.82
  C_03-335                    0.43      0.43     13.91      0.09         0.10
  C_03-382                    0.01      0.04      0.01      0.05         0.01
  C_03-384                    0.53      0.60      0.53      0.64         0.53
  C_03-385                    0.01      0.45      0.01      0.47         0.01
  C_03-394                   13.96     13.96     13.97      0.01         0.01
  C_03-408                    1.22      1.23      1.74      0.02         0.01
  C_03-419                    1.16      1.16      1.34      0.03         0.01
  C_03-420                    1.11      1.11      1.42      0.01         0.01
  C_03-60                    10.85     10.86     13.94      0.01         0.12
  C_03-63                     1.36      1.36      1.45      0.01         0.01
  C_03-65                    13.94     13.94     13.96      0.01         0.01
  C_03-67                    13.94     13.94     13.94      0.85         2.28
  C_03-68                    13.93     13.94     13.94      1.03         2.96
  C_03-70                    13.94     13.94     13.95      1.11         2.09
  C_03-71                    13.95     13.95     13.97      0.82         0.83
  C_03-73                    13.95     13.96     13.96      5.05         3.50
  C_03-74                    13.96     13.96     13.96      0.01         0.48
  C_03-75                    13.96     13.96     13.97      0.01         0.01
  C_03-77                    13.96     13.96     13.96      0.01         0.05
  C_03-79                    13.97     13.97     13.98      0.41         0.39
  C_03-80                    13.98     13.98     13.99      0.59         0.57
  C_03-81                    13.99     13.99     14.00      0.61         0.95
  C_09-231                    1.02      1.04      1.02      1.06         1.02
  C_09-232                    0.95      0.95      1.00      0.01         0.44
  C_09-233                    0.86      0.86      0.95      0.22         0.22
  C_09-234                    0.53      0.55      0.56      0.28         0.25
  C_09-235                    0.50      0.51      0.55      0.06         0.08
  C_09-237                    0.44      0.45      0.53      0.16         0.15
  C_09-238                    0.72      0.79      0.72      0.98         0.72
  C_09-239                    0.76      0.76      1.04      0.01         0.01
  C_09-240                    0.52      0.52      0.65      0.07         0.10
  C_09-241                    0.49      0.49      1.12      0.01         0.01
  C_09-242                    0.39      0.39      0.55      0.04         0.08
  C_09-244                    0.44      0.44      0.47      0.01         0.01
  C_09-245                    0.50      0.50      0.58      0.01         0.01
  C_09-246                    0.59      0.59      0.62      0.01         0.01
  C_09-247                    0.36      0.36      1.12      0.06         0.01
  C_09-248                    0.23      0.23      0.39      0.01         0.01
  C_09-249                    0.31      0.31      0.38      0.19         0.17
  C_09-250                    0.06      0.18      0.06      0.61         0.06
  C_09-251                    0.20      0.20      0.25      0.02         0.01
  C_09-252                    0.01      0.14      0.01      0.51         0.01
  C_09-253                    0.25      0.25      0.38      0.01         0.01
  C_09-254                    0.01      0.01      0.01      0.22         0.01
  C_09-255                    0.18      0.19      0.18      0.38         0.17
  C_09-256                    0.01      0.01      0.01      0.32         0.01
  C_09-257                    0.05      0.18      0.05      0.47         0.05
  C_09-258                    0.10      0.10      0.24      0.01         0.01
  C_09-259                    0.01      0.01      0.37      0.01         0.01
  C_09-260                    0.25      0.30      0.25      0.29         0.25
  C_09-261                    0.46      0.48      0.46      0.43         0.43
  C_09-262                    0.41      0.42      1.02      0.03         0.03
  C_09-263                    0.55      0.61      0.55      0.94         0.55
  C_09-264                    0.42      0.42      0.53      0.02         0.02
  C_09-264.1                  0.49      0.53      0.58      0.29         0.38
  C_09-265                    0.45      0.45      0.49      0.08         0.12
  C_09-266                    0.25      0.25      0.34      0.22         0.20
  C_09-267                    0.42      0.42      0.54      0.03         0.04
  C_09-269                    0.47      0.50      0.47      0.54         0.47
  C_09-270                    0.50      0.51      0.52      0.44         0.43
  C_09-272                    0.50      0.50      0.51      0.51         0.47
  C_09-297                    0.57      0.57      0.79      0.01         0.01
  C_09-344                    0.29      0.47      0.29      0.60         0.29
  C_09-355                    0.58      0.58      0.94      0.01         0.01
  C_09-357                    0.49      0.49      0.58      0.02         0.02
  C_09-443                    0.41      0.41      0.53      0.01         0.01
  C_09-485                    0.54      0.55      0.54      0.30         0.27
  C_09-489                    0.44      0.44      0.59      0.08         0.09
  C_09-500                    0.60      0.60      0.62      0.06         0.01
  C_13-3014                   0.43      0.44      0.71      0.03         0.01
  C_13-3016                   0.71      0.71      0.79      0.01         0.01
  C_13-341                    0.89      0.89      1.09      0.01         0.01
  C_13-343                    0.58      1.22      0.58      1.24         0.58
  C_13-344                    0.11      0.11      0.25      0.01         0.01
  C_13-345                    0.87      0.88      1.02      0.02         0.01
  C_13-346                    0.99      0.99      1.13      0.09         0.17
  C_13-347                    0.71      0.71      0.88      0.35         0.34
  C_13-348                    0.63      0.65      0.80      0.39         0.36
  C_13-349                    0.45      0.45      0.62      0.01         0.01
  C_13-362                    0.43      0.44      0.54      0.21         0.19
  C_13-798                    0.46      0.46      0.55      0.28         0.27
  C_13-804                    0.61      0.63      0.61      0.76         0.61
  C_13-805                    0.42      0.46      0.43      0.07         0.27
  C_P_MH1                     1.62      1.63     13.96      0.01         0.01
  C_P_MH2                     1.43      1.44      1.63      0.01         0.01
  

  Analysis begun on:  Fri Nov 29 08:15:14 2019
  Analysis ended on:  Fri Nov 29 08:15:16 2019
  Total elapsed time: 00:00:02