
  EPA STORM WATER MANAGEMENT MODEL - VERSION 5.1 (Build 5.1.013)
  --------------------------------------------------------------

  WARNING 03: negative offset ignored for Link C_12200000_005600
  WARNING 03: negative offset ignored for Link DUMMY_LINK
  WARNING 02: maximum depth increased for Node J_12200000_001515
  WARNING 02: maximum depth increased for Node J_12200000_001735
  WARNING 02: maximum depth increased for Node J_12200000_002330
  WARNING 02: maximum depth increased for Node J_12200000_002410
  WARNING 02: maximum depth increased for Node J_12200000_002468
  WARNING 02: maximum depth increased for Node J_12200000_002601
  WARNING 02: maximum depth increased for Node J_12200000_002806
  WARNING 02: maximum depth increased for Node J_12200000_003203
  WARNING 02: maximum depth increased for Node J_12200000_003474
  WARNING 02: maximum depth increased for Node J_12200000_003862
  WARNING 02: maximum depth increased for Node J_12200000_003929
  WARNING 02: maximum depth increased for Node J_12200000_004078
  WARNING 02: maximum depth increased for Node J_12200000_004165
  WARNING 02: maximum depth increased for Node J_12200000_004240
  WARNING 02: maximum depth increased for Node J_12200000_004315
  WARNING 02: maximum depth increased for Node J_12200000_004842
  WARNING 02: maximum depth increased for Node J_12200000_005096
  WARNING 02: maximum depth increased for Node J_12200000_005340
  WARNING 02: maximum depth increased for Node J_12201000_000145
  WARNING 02: maximum depth increased for Node J_12201000_000199
  WARNING 02: maximum depth increased for Node J_12201000_000306
  WARNING 02: maximum depth increased for Node J_12201000_000414
  WARNING 02: maximum depth increased for Node J_12201000_000596
  WARNING 02: maximum depth increased for Node J_12201000_000784
  WARNING 02: maximum depth increased for Node J_12201000_000972
  
  *********************************************************
  NOTE: The summary statistics displayed in this report are
  based on results found at every computational time step,  
  not just on results from each reporting time step.
  *********************************************************
  
  ****************
  Analysis Options
  ****************
  Flow Units ............... CFS
  Process Models:
    Rainfall/Runoff ........ YES
    RDII ................... NO
    Snowmelt ............... NO
    Groundwater ............ NO
    Flow Routing ........... YES
    Ponding Allowed ........ YES
    Water Quality .......... NO
  Infiltration Method ...... CURVE_NUMBER
  Flow Routing Method ...... DYNWAVE
  Surcharge Method ......... EXTRAN
  Starting Date ............ 01/01/2017 00:00:00
  Ending Date .............. 01/03/2017 00:00:00
  Antecedent Dry Days ...... 0.0
  Report Time Step ......... 00:05:00
  Wet Time Step ............ 00:05:00
  Dry Time Step ............ 00:05:00
  Routing Time Step ........ 5.00 sec
  Variable Time Step ....... YES
  Maximum Trials ........... 8
  Number of Threads ........ 1
  Head Tolerance ........... 0.005000 ft
  
  
  **************************        Volume         Depth
  Runoff Quantity Continuity     acre-feet        inches
  **************************     ---------       -------
  Total Precipitation ......       308.095         9.480
  Evaporation Loss .........         0.000         0.000
  Infiltration Loss ........        66.462         2.045
  Surface Runoff ...........       239.683         7.375
  Final Storage ............         2.149         0.066
  Continuity Error (%) .....        -0.065
  
  
  **************************        Volume        Volume
  Flow Routing Continuity        acre-feet      10^6 gal
  **************************     ---------     ---------
  Dry Weather Inflow .......         0.000         0.000
  Wet Weather Inflow .......       239.680        78.103
  Groundwater Inflow .......         0.000         0.000
  RDII Inflow ..............         0.000         0.000
  External Inflow ..........         1.507         0.491
  External Outflow .........       241.271        78.622
  Flooding Loss ............         0.000         0.000
  Evaporation Loss .........         0.000         0.000
  Exfiltration Loss ........         0.000         0.000
  Initial Stored Volume ....         0.128         0.042
  Final Stored Volume ......         0.081         0.026
  Continuity Error (%) .....        -0.015
  
  
  ***************************
  Time-Step Critical Elements
  ***************************
  Link C_12200000_005600 (32.27%)
  Link C_12200000_003862 (3.57%)
  Link C_12200000_003862_2 (3.06%)
  Link C_12200000_005579 (1.03%)
  
  
  ********************************
  Highest Flow Instability Indexes
  ********************************
  All links are stable.
  
  
  *************************
  Routing Time Step Summary
  *************************
  Minimum Time Step           :     0.50 sec
  Average Time Step           :     4.33 sec
  Maximum Time Step           :     5.00 sec
  Percent in Steady State     :     0.00
  Average Iterations per Step :     2.00
  Percent Not Converging      :     0.00
  
  
  ***************************
  Subcatchment Runoff Summary
  ***************************
  
  ------------------------------------------------------------------------------------------------------------------------------
                            Total      Total      Total      Total     Imperv       Perv      Total       Total     Peak  Runoff
                           Precip      Runon       Evap      Infil     Runoff     Runoff     Runoff      Runoff   Runoff   Coeff
  Subcatchment                 in         in         in         in         in         in         in    10^6 gal      CFS
  ------------------------------------------------------------------------------------------------------------------------------
  S_12200000_002221          9.48       0.00       0.00       2.40       4.05       4.40       7.03       10.33   204.06   0.741
  S_12200000_002948          9.48       0.00       0.00       3.27       1.98       5.22       6.13        8.71    95.84   0.647
  S_12200000_003929          9.48       0.00       0.00       2.08       4.61       4.11       7.34        9.59   202.06   0.774
  S_12200000_005340          9.48       0.00       0.00       1.99       4.80       3.98       7.44        2.24    53.14   0.784
  S_12200000_005600          9.48       0.00       0.00       1.23       6.59       2.65       8.19       38.46   730.59   0.864
  S_12200000_006050          9.48       0.00       0.00       2.97       2.73       4.98       6.46        6.55    93.67   0.681
  S_12201000_000414          9.48       0.00       0.00       3.59       1.60       5.19       5.84        2.23    29.51   0.616
  
  
  ******************
  Node Depth Summary
  ******************
  
  ---------------------------------------------------------------------------------
                                 Average  Maximum  Maximum  Time of Max    Reported
                                   Depth    Depth      HGL   Occurrence   Max Depth
  Node                 Type         Feet     Feet     Feet  days hr:min        Feet
  ---------------------------------------------------------------------------------
  J_12200000_001333    JUNCTION     0.12     0.20   845.70     0  13:03        0.20
  J_12200000_001515    JUNCTION     1.29     5.64   854.74     0  13:03        5.64
  J_12200000_001629    JUNCTION     2.72     7.66   855.66     0  13:02        7.66
  J_12200000_001735    JUNCTION     1.94     7.28   856.18     0  13:02        7.28
  J_12200000_002186    JUNCTION     2.39    13.15   865.25     0  13:02       13.14
  J_12200000_002221    JUNCTION     2.06    12.65   865.25     0  13:01       12.65
  J_12200000_002330    JUNCTION     1.50    10.75   865.25     0  13:02       10.75
  J_12200000_002410    JUNCTION     1.46     9.46   865.26     0  13:02        9.46
  J_12200000_002468    JUNCTION     1.70     9.39   865.29     0  13:01        9.39
  J_12200000_002545    JUNCTION     1.78     9.10   865.30     0  13:01        9.10
  J_12200000_002601    JUNCTION     1.56     8.52   865.32     0  13:01        8.51
  J_12200000_002806    JUNCTION     1.48     6.43   865.73     0  12:30        6.43
  J_12200000_002948    JUNCTION     1.39     6.73   867.73     0  12:29        6.73
  J_12200000_003203    JUNCTION     0.89     5.33   871.53     0  12:29        5.33
  J_12200000_003474    JUNCTION     0.98     5.52   877.32     0  12:29        5.51
  J_12200000_003648    JUNCTION     1.18     6.30   881.80     0  12:28        6.30
  J_12200000_003803    JUNCTION     0.90     5.63   884.33     0  12:28        5.62
  J_12200000_003862    JUNCTION     1.86     9.40   888.30     0  12:28        9.39
  J_12200000_003929    JUNCTION     1.56     8.89   888.39     0  12:27        8.88
  J_12200000_004078    JUNCTION     0.80     5.48   888.48     0  12:27        5.47
  J_12200000_004165    JUNCTION     0.66     2.82   889.72     0  12:25        2.82
  J_12200000_004240    JUNCTION     1.16     7.50   897.10     0  12:25        7.50
  J_12200000_004315    JUNCTION     0.70     4.04   897.54     0  12:23        4.04
  J_12200000_004570    JUNCTION     0.46     2.97   906.97     0  12:23        2.96
  J_12200000_004842    JUNCTION     0.52     3.35   915.85     0  12:22        3.33
  J_12200000_005096    JUNCTION     0.89     4.60   924.60     0  12:21        4.60
  J_12200000_005255    JUNCTION     0.74     3.72   928.22     0  12:21        3.71
  J_12200000_005340    JUNCTION     0.82     6.93   932.43     0  12:21        6.92
  J_12200000_005493    JUNCTION     1.78     7.64   933.94     0  12:19        7.64
  J_12200000_005579    JUNCTION     1.18     7.16   934.49     0  12:18        7.15
  J_12200000_006050    JUNCTION     0.61     3.34   944.80     0  12:43        3.33
  J_12201000_000145    JUNCTION     0.70     6.72   865.32     0  13:01        6.72
  J_12201000_000199    JUNCTION     0.54     6.02   865.32     0  13:01        6.02
  J_12201000_000306    JUNCTION     0.32     2.15   865.45     0  12:59        2.15
  J_12201000_000414    JUNCTION     0.19     0.99   867.39     0  12:15        0.99
  J_12201000_000596    JUNCTION     0.03     0.03   871.63     0  00:48        0.03
  J_12201000_000784    JUNCTION     0.03     0.04   877.14     0  00:31        0.04
  J_12201000_000972    JUNCTION     0.03     0.04   882.54     0  00:17        0.04
  J_12201000_001141    JUNCTION     0.05     0.10   887.60     0  00:00        0.07
  DUMMY_OUTFALL        OUTFALL      0.00     0.00   840.00     0  00:00        0.00
  SU_12200000_005600   STORAGE      2.75    12.49   939.79     0  12:18       12.46
  SU_12200000_006050   STORAGE      2.28     8.87   950.37     0  12:43        8.87
  
  
  *******************
  Node Inflow Summary
  *******************
  
  -------------------------------------------------------------------------------------------------
                                  Maximum  Maximum                  Lateral       Total        Flow
                                  Lateral    Total  Time of Max      Inflow      Inflow     Balance
                                   Inflow   Inflow   Occurrence      Volume      Volume       Error
  Node                 Type           CFS      CFS  days hr:min    10^6 gal    10^6 gal     Percent
  -------------------------------------------------------------------------------------------------
  J_12200000_001333    JUNCTION      0.00   606.09     0  13:03           0        78.6       0.000
  J_12200000_001515    JUNCTION      0.00   606.10     0  13:02           0        78.6      -0.001
  J_12200000_001629    JUNCTION      0.00   606.11     0  13:02           0        78.6      -0.001
  J_12200000_001735    JUNCTION      0.00   606.12     0  13:02           0        78.6      -0.014
  J_12200000_002186    JUNCTION      0.00   619.34     0  12:41           0        78.6       0.001
  J_12200000_002221    JUNCTION    204.15   723.44     0  12:30        10.4        78.6      -0.002
  J_12200000_002330    JUNCTION      0.00   719.43     0  12:30           0        68.2       0.005
  J_12200000_002410    JUNCTION      0.00   786.54     0  12:29           0        68.1      -0.074
  J_12200000_002468    JUNCTION      0.00   830.49     0  12:29           0        68.2       0.104
  J_12200000_002545    JUNCTION      0.00   873.69     0  12:29           0        68.2      -0.007
  J_12200000_002601    JUNCTION      0.00   909.29     0  12:30           0        68.2       0.049
  J_12200000_002806    JUNCTION      0.00   886.46     0  12:29           0        65.8      -0.062
  J_12200000_002948    JUNCTION     95.93   886.61     0  12:29        8.82        65.8      -0.004
  J_12200000_003203    JUNCTION      0.00   803.18     0  12:29           0          57      -0.003
  J_12200000_003474    JUNCTION      0.00   803.26     0  12:28           0          57      -0.002
  J_12200000_003648    JUNCTION      0.00   803.35     0  12:28           0          57      -0.002
  J_12200000_003803    JUNCTION      0.00   803.36     0  12:28           0          57      -0.001
  J_12200000_003862    JUNCTION      0.00   805.31     0  12:26           0          57      -0.001
  J_12200000_003929    JUNCTION    202.14   811.18     0  12:25        9.69          57      -0.005
  J_12200000_004078    JUNCTION      0.00   688.00     0  12:25           0        47.3      -0.004
  J_12200000_004165    JUNCTION      0.00   688.05     0  12:25           0        47.3      -0.007
  J_12200000_004240    JUNCTION      0.00   689.82     0  12:23           0        47.3       0.025
  J_12200000_004315    JUNCTION      0.00   690.36     0  12:23           0        47.3      -0.032
  J_12200000_004570    JUNCTION      0.00   690.53     0  12:22           0        47.3      -0.000
  J_12200000_004842    JUNCTION      0.00   690.68     0  12:22           0        47.3       0.002
  J_12200000_005096    JUNCTION      0.00   690.53     0  12:21           0        47.3      -0.001
  J_12200000_005255    JUNCTION      0.00   690.62     0  12:21           0        47.3      -0.006
  J_12200000_005340    JUNCTION     53.16   700.16     0  12:18        2.27        47.3      -0.012
  J_12200000_005493    JUNCTION      0.00   663.58     0  12:18           0          45      -0.002
  J_12200000_005579    JUNCTION      0.00   663.66     0  12:18           0          45      -0.000
  J_12200000_006050    JUNCTION      0.00    58.43     0  12:43           0        6.55       0.000
  J_12201000_000145    JUNCTION      0.00    28.33     0  12:14           0        2.35       0.023
  J_12201000_000199    JUNCTION      0.00    30.03     0  12:17           0        2.35      -0.033
  J_12201000_000306    JUNCTION      0.00    29.61     0  12:15           0        2.35       0.046
  J_12201000_000414    JUNCTION     29.53    29.61     0  12:15        2.25        2.35       0.011
  J_12201000_000596    JUNCTION      0.00     0.10     0  00:40           0       0.103       0.356
  J_12201000_000784    JUNCTION      0.00     0.11     0  00:25           0       0.103       0.418
  J_12201000_000972    JUNCTION      0.00     0.23     0  00:00           0       0.104       0.370
  J_12201000_001141    JUNCTION      0.08     0.08     0  00:00       0.103       0.103      -0.180
  DUMMY_OUTFALL        OUTFALL       0.00   606.09     0  13:03           0        78.6       0.000
  SU_12200000_005600   STORAGE     730.59   751.82     0  12:10        38.5          45       0.000
  SU_12200000_006050   STORAGE      93.67    93.67     0  12:10        6.55        6.55       0.000
  
  
  **********************
  Node Surcharge Summary
  **********************
  
  No nodes were surcharged.
  
  
  *********************
  Node Flooding Summary
  *********************
  
  No nodes were flooded.
  
  
  **********************
  Storage Volume Summary
  **********************
  
  --------------------------------------------------------------------------------------------------
                         Average     Avg  Evap Exfil       Maximum     Max    Time of Max    Maximum
                          Volume    Pcnt  Pcnt  Pcnt        Volume    Pcnt     Occurrence    Outflow
  Storage Unit          1000 ft3    Full  Loss  Loss      1000 ft3    Full    days hr:min        CFS
  --------------------------------------------------------------------------------------------------
  SU_12200000_005600      35.839       2     0     0       332.921      22       0  12:18     663.66
  SU_12200000_006050      21.897       5     0     0       139.940      33       0  12:43      58.43
  
  
  ***********************
  Outfall Loading Summary
  ***********************
  
  -----------------------------------------------------------
                         Flow       Avg       Max       Total
                         Freq      Flow      Flow      Volume
  Outfall Node           Pcnt       CFS       CFS    10^6 gal
  -----------------------------------------------------------
  DUMMY_OUTFALL        100.00     91.54    606.09      78.616
  -----------------------------------------------------------
  System               100.00     91.54    606.09      78.616
  
  
  ********************
  Link Flow Summary
  ********************
  
  -----------------------------------------------------------------------------
                                 Maximum  Time of Max   Maximum    Max/    Max/
                                  |Flow|   Occurrence   |Veloc|    Full    Full
  Link                 Type          CFS  days hr:min    ft/sec    Flow   Depth
  -----------------------------------------------------------------------------
  C_12200000_001515    CHANNEL    606.09     0  13:03     13.12    0.01    0.08
  C_12200000_001629    CHANNEL    606.10     0  13:02      4.57    0.01    0.18
  C_12200000_001735    CHANNEL    606.11     0  13:02      5.32    0.01    0.22
  C_12200000_002186    CONDUIT    606.12     0  13:02     12.27    1.46    0.95
  C_12200000_002186_HC CHANNEL      0.00     0  00:00      0.00    0.00    0.00
  C_12200000_002221    CHANNEL    619.34     0  12:41      2.89    0.00    0.34
  C_12200000_002330    CHANNEL    598.71     0  12:30      3.31    0.00    0.33
  C_12200000_002410    CHANNEL    719.43     0  12:30      4.68    0.00    0.35
  C_12200000_002468    CONDUIT    458.44     0  12:21      5.39    3.32    1.00
  C_12200000_002468_HC CHANNEL    547.35     0  12:40      2.18    0.01    0.16
  C_12200000_002545    CHANNEL    830.49     0  12:29      4.79    0.01    0.31
  C_12200000_002601    CHANNEL    873.69     0  12:29      3.98    0.01    0.32
  C_12200000_002806    CHANNEL    886.12     0  12:30      5.58    0.01    0.28
  C_12200000_002948    CHANNEL    886.46     0  12:29      6.72    0.01    0.22
  C_12200000_003203    CHANNEL    802.87     0  12:29      7.35    0.01    0.21
  C_12200000_003474    CHANNEL    803.18     0  12:29      7.93    0.00    0.16
  C_12200000_003648    CHANNEL    803.26     0  12:28      9.70    0.01    0.19
  C_12200000_003803    CHANNEL    803.35     0  12:28      7.29    0.01    0.22
  C_12200000_003862    CONDUIT     97.79     0  12:14     13.84    1.58    1.00
  C_12200000_003862_2  CONDUIT    276.22     0  12:19     14.16    2.01    1.00
  C_12200000_003862_HC CHANNEL    446.12     0  12:28      2.88    0.02    0.11
  C_12200000_003929    CHANNEL    805.31     0  12:26      2.55    0.00    0.18
  C_12200000_004078    CHANNEL    683.66     0  12:26      2.90    0.00    0.15
  C_12200000_004165    CHANNEL    688.00     0  12:25      4.53    0.00    0.10
  C_12200000_004240    CONDUIT    182.04     0  12:25     16.13    0.81    0.84
  C_12200000_004240_2  CONDUIT    180.85     0  12:25     15.68    0.88    0.86
  C_12200000_004240_HC CHANNEL    325.16     0  12:25      3.85    0.00    0.04
  C_12200000_004315    CHANNEL    689.82     0  12:23      6.03    0.00    0.16
  C_12200000_004570    CHANNEL    690.36     0  12:23      7.57    0.00    0.09
  C_12200000_004842    CHANNEL    690.53     0  12:22      9.22    0.00    0.09
  C_12200000_005096    CHANNEL    690.68     0  12:22      9.91    0.00    0.12
  C_12200000_005255    CHANNEL    690.53     0  12:21      5.37    0.00    0.16
  C_12200000_005340    CONDUIT    688.29     0  12:21     11.60    0.55    0.80
  C_12200000_005340_HC CHANNEL      2.33     0  12:21      0.38    0.00    0.01
  C_12200000_005493    CHANNEL    661.98     0  12:19      6.19    0.01    0.30
  C_12200000_005579    CHANNEL    663.58     0  12:18      7.83    0.10    0.43
  C_12200000_005600    CONDUIT    142.90     0  12:17     14.85    2.39    1.00
  C_12200000_006050    CONDUIT     58.43     0  12:43      9.34    0.76    0.83
  C_12201000_000145    CHANNEL     26.18     0  12:14      0.67    0.00    0.31
  C_12201000_000199    CHANNEL     28.33     0  12:14      0.92    0.00    0.25
  C_12201000_000306    CONDUIT     30.03     0  12:17      9.62    0.30    0.86
  C_12201000_000306_HC CHANNEL      0.00     0  00:00      0.00    0.00    0.00
  C_12201000_000414    CHANNEL     29.61     0  12:15      3.12    0.00    0.04
  C_12201000_000596    CHANNEL      0.09     0  00:48      0.42    0.00    0.01
  C_12201000_000784    CHANNEL      0.10     0  00:40      0.47    0.00    0.00
  C_12201000_000972    CHANNEL      0.11     0  00:25      0.48    0.00    0.00
  C_12201000_001141    CHANNEL      0.23     0  00:00      1.26    0.00    0.00
  DUMMY_LINK           DUMMY      606.09     0  13:03
  OR_12200000_006050_1 ORIFICE      2.60     0  12:27                      1.00
  OR_12200000_006050_2 ORIFICE     10.42     0  12:27                      1.00
  OR_12200000_006050_3 ORIFICE     10.02     0  12:35                      1.00
  OR_12200000_006050_4 ORIFICE      8.16     0  12:43                      1.00
  W_12200000_005600_01 WEIR       253.51     0  12:18                      0.37
  W_12200000_005600_02 WEIR       267.29     0  12:18                      0.22
  W_12200000_006050_1  WEIR        28.51     0  12:43                      0.07
  W_12200000_006050_2  WEIR         0.00     0  00:00                      0.00
  W_12200000_006050_3  WEIR         0.00     0  00:00                      0.00
  
  
  ***************************
  Flow Classification Summary
  ***************************
  
  -------------------------------------------------------------------------------------
                      Adjusted    ---------- Fraction of Time in Flow Class ---------- 
                       /Actual         Up    Down  Sub   Sup   Up    Down  Norm  Inlet 
  Conduit               Length    Dry  Dry   Dry   Crit  Crit  Crit  Crit  Ltd   Ctrl  
  -------------------------------------------------------------------------------------
  C_12200000_001515       1.25   0.00  0.00  0.00  0.37  0.63  0.00  0.00  0.29  0.00
  C_12200000_001629       1.66   0.00  0.00  0.00  1.00  0.00  0.00  0.00  0.00  0.00
  C_12200000_001735       1.47   0.00  0.00  0.00  1.00  0.00  0.00  0.00  0.00  0.00
  C_12200000_002186       1.00   0.00  0.00  0.00  0.99  0.00  0.00  0.01  0.29  0.00
  C_12200000_002186_HC    1.00   1.00  0.00  0.00  0.00  0.00  0.00  0.00  0.00  0.00
  C_12200000_002221       6.11   0.00  0.00  0.00  1.00  0.00  0.00  0.00  0.46  0.00
  C_12200000_002330       2.02   0.00  0.00  0.00  1.00  0.00  0.00  0.00  0.91  0.00
  C_12200000_002410       2.34   0.00  0.00  0.00  1.00  0.00  0.00  0.00  0.00  0.00
  C_12200000_002468       1.28   0.00  0.00  0.00  1.00  0.00  0.00  0.00  0.00  0.00
  C_12200000_002468_HC    2.41   0.92  0.00  0.00  0.07  0.00  0.00  0.01  0.00  0.00
  C_12200000_002545       2.06   0.00  0.00  0.00  1.00  0.00  0.00  0.00  0.42  0.00
  C_12200000_002601       3.19   0.00  0.00  0.00  1.00  0.00  0.00  0.00  0.54  0.00
  C_12200000_002806       1.00   0.00  0.00  0.00  1.00  0.00  0.00  0.00  0.22  0.00
  C_12200000_002948       1.19   0.00  0.00  0.00  1.00  0.00  0.00  0.00  0.64  0.00
  C_12200000_003203       1.00   0.00  0.00  0.00  1.00  0.00  0.00  0.00  1.00  0.00
  C_12200000_003474       1.00   0.00  0.00  0.00  1.00  0.00  0.00  0.00  0.00  0.00
  C_12200000_003648       1.14   0.00  0.00  0.00  0.98  0.02  0.00  0.00  0.00  0.00
  C_12200000_003803       1.20   0.00  0.00  0.00  1.00  0.00  0.00  0.00  0.99  0.00
  C_12200000_003862       1.58   0.36  0.00  0.00  0.05  0.00  0.00  0.59  0.00  0.00
  C_12200000_003862_2     1.67   0.00  0.00  0.00  0.02  0.00  0.00  0.98  0.00  0.00
  C_12200000_003862_HC    1.93   0.94  0.00  0.00  0.00  0.00  0.00  0.06  0.00  0.00
  C_12200000_003929       3.75   0.00  0.00  0.00  1.00  0.00  0.00  0.00  0.50  0.00
  C_12200000_004078       1.90   0.00  0.00  0.00  1.00  0.00  0.00  0.00  0.97  0.00
  C_12200000_004165       3.81   0.00  0.00  0.00  0.63  0.37  0.00  0.00  0.24  0.00
  C_12200000_004240       1.95   0.00  0.00  0.00  0.00  0.00  0.00  1.00  0.00  0.00
  C_12200000_004240_2     1.85   0.00  0.00  0.00  0.00  0.00  0.00  1.00  0.00  0.00
  C_12200000_004240_HC    3.87   0.96  0.00  0.00  0.00  0.00  0.00  0.04  0.00  0.00
  C_12200000_004315       4.17   0.00  0.00  0.00  1.00  0.00  0.00  0.00  1.00  0.00
  C_12200000_004570       1.19   0.00  0.00  0.00  1.00  0.00  0.00  0.00  1.00  0.00
  C_12200000_004842       1.00   0.00  0.00  0.00  0.99  0.01  0.00  0.00  0.01  0.00
  C_12200000_005096       1.00   0.00  0.00  0.00  0.64  0.36  0.00  0.00  0.00  0.00
  C_12200000_005255       1.40   0.00  0.00  0.00  1.00  0.00  0.00  0.00  1.00  0.00
  C_12200000_005340       1.93   0.00  0.00  0.00  0.14  0.40  0.00  0.45  0.00  0.00
  C_12200000_005340_HC    1.64   0.99  0.00  0.00  0.00  0.00  0.00  0.01  0.00  0.00
  C_12200000_005493       1.00   0.00  0.00  0.00  1.00  0.00  0.00  0.00  0.00  0.00
  C_12200000_005579       1.00   0.00  0.00  0.00  1.00  0.00  0.00  0.00  0.57  0.00
  C_12200000_005600       8.41   0.00  0.00  0.00  1.00  0.00  0.00  0.00  0.00  0.00
  C_12200000_006050       1.00   0.00  0.00  0.00  0.00  0.00  0.00  1.00  0.00  0.00
  C_12201000_000145       1.00   0.00  0.00  0.00  1.00  0.00  0.00  0.00  0.84  0.00
  C_12201000_000199       2.80   0.00  0.00  0.00  1.00  0.00  0.00  0.00  0.91  0.00
  C_12201000_000306       1.12   0.00  0.00  0.00  0.07  0.01  0.00  0.92  0.01  0.00
  C_12201000_000306_HC    1.68   1.00  0.00  0.00  0.00  0.00  0.00  0.00  0.00  0.00
  C_12201000_000414       1.83   0.00  0.00  0.00  1.00  0.00  0.00  0.00  1.00  0.00
  C_12201000_000596       1.12   0.00  0.00  0.00  1.00  0.00  0.00  0.00  1.00  0.00
  C_12201000_000784       1.09   0.00  0.00  0.00  1.00  0.00  0.00  0.00  0.98  0.00
  C_12201000_000972       1.21   0.00  0.00  0.00  1.00  0.00  0.00  0.00  0.01  0.00
  C_12201000_001141       1.19   0.00  0.00  0.00  1.00  0.00  0.00  0.00  0.00  0.00
  
  
  *************************
  Conduit Surcharge Summary
  *************************
  
  ----------------------------------------------------------------------------
                                                           Hours        Hours 
                         --------- Hours Full --------   Above Full   Capacity
  Conduit                Both Ends  Upstream  Dnstream   Normal Flow   Limited
  ----------------------------------------------------------------------------
  C_12200000_002186           0.01      2.24      0.01      2.27         0.01
  C_12200000_002468           2.01      2.14      2.01      2.94         0.82
  C_12200000_003862           1.22      3.86      1.22      2.25         1.22
  C_12200000_003862_2         0.34      2.06      0.34      1.99         0.34
  C_12200000_004240           0.01      1.38      0.01      0.01         0.01
  C_12200000_004240_2         0.01      1.39      0.01      0.01         0.01
  C_12200000_005340           0.01      0.34      0.01      0.01         0.01
  C_12200000_005600           2.27      2.27      9.31      6.93         0.01
  C_12200000_006050           0.01      0.29      0.01      0.01         0.01
  C_12201000_000306           0.01      0.01      1.10      0.01         0.01
  

  Analysis begun on:  Fri Nov 29 08:15:16 2019
  Analysis ended on:  Fri Nov 29 08:15:18 2019
  Total elapsed time: 00:00:02