
  EPA STORM WATER MANAGEMENT MODEL - VERSION 5.1 (Build 5.1.013)
  --------------------------------------------------------------

  WARNING 03: negative offset ignored for Link C_12200000_005600
  WARNING 03: negative offset ignored for Link DUMMY_LINK
  WARNING 02: maximum depth increased for Node J_12200000_001515
  WARNING 02: maximum depth increased for Node J_12200000_001735
  WARNING 02: maximum depth increased for Node J_12200000_002330
  WARNING 02: maximum depth increased for Node J_12200000_002410
  WARNING 02: maximum depth increased for Node J_12200000_002468
  WARNING 02: maximum depth increased for Node J_12200000_002601
  WARNING 02: maximum depth increased for Node J_12200000_002806
  WARNING 02: maximum depth increased for Node J_12200000_003203
  WARNING 02: maximum depth increased for Node J_12200000_003474
  WARNING 02: maximum depth increased for Node J_12200000_003862
  WARNING 02: maximum depth increased for Node J_12200000_003929
  WARNING 02: maximum depth increased for Node J_12200000_004078
  WARNING 02: maximum depth increased for Node J_12200000_004165
  WARNING 02: maximum depth increased for Node J_12200000_004240
  WARNING 02: maximum depth increased for Node J_12200000_004315
  WARNING 02: maximum depth increased for Node J_12200000_004842
  WARNING 02: maximum depth increased for Node J_12200000_005096
  WARNING 02: maximum depth increased for Node J_12200000_005340
  WARNING 02: maximum depth increased for Node J_12201000_000145
  WARNING 02: maximum depth increased for Node J_12201000_000199
  WARNING 02: maximum depth increased for Node J_12201000_000306
  WARNING 02: maximum depth increased for Node J_12201000_000414
  WARNING 02: maximum depth increased for Node J_12201000_000596
  WARNING 02: maximum depth increased for Node J_12201000_000784
  WARNING 02: maximum depth increased for Node J_12201000_000972
  
  *********************************************************
  NOTE: The summary statistics displayed in this report are
  based on results found at every computational time step,  
  not just on results from each reporting time step.
  *********************************************************
  
  ****************
  Analysis Options
  ****************
  Flow Units ............... CFS
  Process Models:
    Rainfall/Runoff ........ YES
    RDII ................... NO
    Snowmelt ............... NO
    Groundwater ............ NO
    Flow Routing ........... YES
    Ponding Allowed ........ YES
    Water Quality .......... NO
  Infiltration Method ...... CURVE_NUMBER
  Flow Routing Method ...... DYNWAVE
  Surcharge Method ......... EXTRAN
  Starting Date ............ 01/01/2017 00:00:00
  Ending Date .............. 01/03/2017 00:00:00
  Antecedent Dry Days ...... 0.0
  Report Time Step ......... 00:05:00
  Wet Time Step ............ 00:05:00
  Dry Time Step ............ 00:05:00
  Routing Time Step ........ 5.00 sec
  Variable Time Step ....... YES
  Maximum Trials ........... 8
  Number of Threads ........ 1
  Head Tolerance ........... 0.005000 ft
  
  
  **************************        Volume         Depth
  Runoff Quantity Continuity     acre-feet        inches
  **************************     ---------       -------
  Total Precipitation ......         0.000         0.000
  Evaporation Loss .........         0.000         0.000
  Infiltration Loss ........         0.000         0.000
  Surface Runoff ...........         0.000         0.000
  Final Storage ............         0.000         0.000
  Continuity Error (%) .....         0.000
  
  
  **************************        Volume        Volume
  Flow Routing Continuity        acre-feet      10^6 gal
  **************************     ---------     ---------
  Dry Weather Inflow .......         0.000         0.000
  Wet Weather Inflow .......         0.000         0.000
  Groundwater Inflow .......         0.000         0.000
  RDII Inflow ..............         0.000         0.000
  External Inflow ..........         0.000         0.000
  External Outflow .........         0.000         0.000
  Flooding Loss ............         0.000         0.000
  Evaporation Loss .........         0.000         0.000
  Exfiltration Loss ........         0.000         0.000
  Initial Stored Volume ....         0.128         0.042
  Final Stored Volume ......         0.128         0.042
  Continuity Error (%) .....         0.000
  
  
  ***************************
  Time-Step Critical Elements
  ***************************
  None
  
  
  ********************************
  Highest Flow Instability Indexes
  ********************************
  All links are stable.
  
  
  ***************************
  Subcatchment Runoff Summary
  ***************************
  
  ------------------------------------------------------------------------------------------------------------------------------
                            Total      Total      Total      Total     Imperv       Perv      Total       Total     Peak  Runoff
                           Precip      Runon       Evap      Infil     Runoff     Runoff     Runoff      Runoff   Runoff   Coeff
  Subcatchment                 in         in         in         in         in         in         in    10^6 gal      CFS
  ------------------------------------------------------------------------------------------------------------------------------
  S_12200000_002221          0.00       0.00       0.00       0.00       0.00       0.00       0.00        0.00     0.00   0.000
  S_12200000_002948          0.00       0.00       0.00       0.00       0.00       0.00       0.00        0.00     0.00   0.000
  S_12200000_003929          0.00       0.00       0.00       0.00       0.00       0.00       0.00        0.00     0.00   0.000
  S_12200000_005340          0.00       0.00       0.00       0.00       0.00       0.00       0.00        0.00     0.00   0.000
  S_12200000_005600          0.00       0.00       0.00       0.00       0.00       0.00       0.00        0.00     0.00   0.000
  S_12200000_006050          0.00       0.00       0.00       0.00       0.00       0.00       0.00        0.00     0.00   0.000
  S_12201000_000414          0.00       0.00       0.00       0.00       0.00       0.00       0.00        0.00     0.00   0.000
  
  
  ******************
  Node Depth Summary
  ******************
  
  ---------------------------------------------------------------------------------
                                 Average  Maximum  Maximum  Time of Max    Reported
                                   Depth    Depth      HGL   Occurrence   Max Depth
  Node                 Type         Feet     Feet     Feet  days hr:min        Feet
  ---------------------------------------------------------------------------------
  J_12200000_001333    JUNCTION  -nan(ind)     0.00   845.50     0  00:00        0.00
  J_12200000_001515    JUNCTION  -nan(ind)     0.00   849.10     0  00:00        0.00
  J_12200000_001629    JUNCTION  -nan(ind)     0.00   848.00     0  00:00        0.00
  J_12200000_001735    JUNCTION  -nan(ind)     0.00   848.90     0  00:00        0.00
  J_12200000_002186    JUNCTION  -nan(ind)     0.00   852.10     0  00:00        0.00
  J_12200000_002221    JUNCTION  -nan(ind)     0.00   852.60     0  00:00        0.00
  J_12200000_002330    JUNCTION  -nan(ind)     0.00   854.50     0  00:00        0.00
  J_12200000_002410    JUNCTION  -nan(ind)     0.00   855.80     0  00:00        0.00
  J_12200000_002468    JUNCTION  -nan(ind)     0.00   855.90     0  00:00        0.00
  J_12200000_002545    JUNCTION  -nan(ind)     0.00   856.20     0  00:00        0.00
  J_12200000_002601    JUNCTION  -nan(ind)     0.00   856.80     0  00:00        0.00
  J_12200000_002806    JUNCTION  -nan(ind)     0.00   859.30     0  00:00        0.00
  J_12200000_002948    JUNCTION  -nan(ind)     0.00   861.00     0  00:00        0.00
  J_12200000_003203    JUNCTION  -nan(ind)     0.00   866.20     0  00:00        0.00
  J_12200000_003474    JUNCTION  -nan(ind)     0.00   871.80     0  00:00        0.00
  J_12200000_003648    JUNCTION  -nan(ind)     0.00   875.50     0  00:00        0.00
  J_12200000_003803    JUNCTION  -nan(ind)     0.00   878.70     0  00:00        0.00
  J_12200000_003862    JUNCTION  -nan(ind)     0.00   878.90     0  00:00        0.00
  J_12200000_003929    JUNCTION  -nan(ind)     0.00   879.50     0  00:00        0.00
  J_12200000_004078    JUNCTION  -nan(ind)     0.00   883.00     0  00:00        0.00
  J_12200000_004165    JUNCTION  -nan(ind)     0.00   886.90     0  00:00        0.00
  J_12200000_004240    JUNCTION  -nan(ind)     0.00   889.60     0  00:00        0.00
  J_12200000_004315    JUNCTION  -nan(ind)     0.00   893.50     0  00:00        0.00
  J_12200000_004570    JUNCTION  -nan(ind)     0.00   904.00     0  00:00        0.00
  J_12200000_004842    JUNCTION  -nan(ind)     0.00   912.50     0  00:00        0.00
  J_12200000_005096    JUNCTION  -nan(ind)     0.00   920.00     0  00:00        0.00
  J_12200000_005255    JUNCTION  -nan(ind)     0.00   924.50     0  00:00        0.00
  J_12200000_005340    JUNCTION  -nan(ind)     0.00   925.50     0  00:00        0.00
  J_12200000_005493    JUNCTION  -nan(ind)     0.00   926.30     0  00:00        0.00
  J_12200000_005579    JUNCTION  -nan(ind)     0.00   927.33     0  00:00        0.00
  J_12200000_006050    JUNCTION  -nan(ind)     0.00   941.46     0  00:00        0.00
  J_12201000_000145    JUNCTION  -nan(ind)     0.00   858.60     0  00:00        0.00
  J_12201000_000199    JUNCTION  -nan(ind)     0.00   859.30     0  00:00        0.00
  J_12201000_000306    JUNCTION  -nan(ind)     0.00   863.30     0  00:00        0.00
  J_12201000_000414    JUNCTION  -nan(ind)     0.00   866.40     0  00:00        0.00
  J_12201000_000596    JUNCTION  -nan(ind)     0.00   871.60     0  00:00        0.00
  J_12201000_000784    JUNCTION  -nan(ind)     0.00   877.10     0  00:00        0.00
  J_12201000_000972    JUNCTION  -nan(ind)     0.00   882.50     0  00:00        0.00
  J_12201000_001141    JUNCTION  -nan(ind)     0.00   887.50     0  00:00        0.00
  DUMMY_OUTFALL        OUTFALL   -nan(ind)     0.00   840.00     0  00:00        0.00
  SU_12200000_005600   STORAGE   -nan(ind)     0.00   927.30     0  00:00        0.00
  SU_12200000_006050   STORAGE   -nan(ind)     0.00   941.50     0  00:00        0.00
  
  
  *******************
  Node Inflow Summary
  *******************
  
  -------------------------------------------------------------------------------------------------
                                  Maximum  Maximum                  Lateral       Total        Flow
                                  Lateral    Total  Time of Max      Inflow      Inflow     Balance
                                   Inflow   Inflow   Occurrence      Volume      Volume       Error
  Node                 Type           CFS      CFS  days hr:min    10^6 gal    10^6 gal     Percent
  -------------------------------------------------------------------------------------------------
  J_12200000_001333    JUNCTION      0.00     0.00     0  00:00           0           0       0.000 gal
  J_12200000_001515    JUNCTION      0.00     0.00     0  00:00           0           0       0.000 gal
  J_12200000_001629    JUNCTION      0.00     0.00     0  00:00           0           0       0.000 gal
  J_12200000_001735    JUNCTION      0.00     0.00     0  00:00           0           0       0.000 gal
  J_12200000_002186    JUNCTION      0.00     0.00     0  00:00           0           0       0.000 gal
  J_12200000_002221    JUNCTION      0.00     0.00     0  00:00           0           0       0.000 gal
  J_12200000_002330    JUNCTION      0.00     0.00     0  00:00           0           0       0.000 gal
  J_12200000_002410    JUNCTION      0.00     0.00     0  00:00           0           0       0.000 gal
  J_12200000_002468    JUNCTION      0.00     0.00     0  00:00           0           0       0.000 gal
  J_12200000_002545    JUNCTION      0.00     0.00     0  00:00           0           0       0.000 gal
  J_12200000_002601    JUNCTION      0.00     0.00     0  00:00           0           0       0.000 gal
  J_12200000_002806    JUNCTION      0.00     0.00     0  00:00           0           0       0.000 gal
  J_12200000_002948    JUNCTION      0.00     0.00     0  00:00           0           0       0.000 gal
  J_12200000_003203    JUNCTION      0.00     0.00     0  00:00           0           0       0.000 gal
  J_12200000_003474    JUNCTION      0.00     0.00     0  00:00           0           0       0.000 gal
  J_12200000_003648    JUNCTION      0.00     0.00     0  00:00           0           0       0.000 gal
  J_12200000_003803    JUNCTION      0.00     0.00     0  00:00           0           0       0.000 gal
  J_12200000_003862    JUNCTION      0.00     0.00     0  00:00           0           0       0.000 gal
  J_12200000_003929    JUNCTION      0.00     0.00     0  00:00           0           0       0.000 gal
  J_12200000_004078    JUNCTION      0.00     0.00     0  00:00           0           0       0.000 gal
  J_12200000_004165    JUNCTION      0.00     0.00     0  00:00           0           0       0.000 gal
  J_12200000_004240    JUNCTION      0.00     0.00     0  00:00           0           0       0.000 gal
  J_12200000_004315    JUNCTION      0.00     0.00     0  00:00           0           0       0.000 gal
  J_12200000_004570    JUNCTION      0.00     0.00     0  00:00           0           0       0.000 gal
  J_12200000_004842    JUNCTION      0.00     0.00     0  00:00           0           0       0.000 gal
  J_12200000_005096    JUNCTION      0.00     0.00     0  00:00           0           0       0.000 gal
  J_12200000_005255    JUNCTION      0.00     0.00     0  00:00           0           0       0.000 gal
  J_12200000_005340    JUNCTION      0.00     0.00     0  00:00           0           0       0.000 gal
  J_12200000_005493    JUNCTION      0.00     0.00     0  00:00           0           0       0.000 gal
  J_12200000_005579    JUNCTION      0.00     0.00     0  00:00           0           0       0.000 gal
  J_12200000_006050    JUNCTION      0.00     0.00     0  00:00           0           0       0.000 gal
  J_12201000_000145    JUNCTION      0.00     0.00     0  00:00           0           0       0.000 gal
  J_12201000_000199    JUNCTION      0.00     0.00     0  00:00           0           0       0.000 gal
  J_12201000_000306    JUNCTION      0.00     0.00     0  00:00           0           0       0.000 gal
  J_12201000_000414    JUNCTION      0.00     0.00     0  00:00           0           0       0.000 gal
  J_12201000_000596    JUNCTION      0.00     0.00     0  00:00           0           0       0.000 gal
  J_12201000_000784    JUNCTION      0.00     0.00     0  00:00           0           0       0.000 gal
  J_12201000_000972    JUNCTION      0.00     0.00     0  00:00           0           0       0.000 gal
  J_12201000_001141    JUNCTION      0.00     0.00     0  00:00           0           0       0.000 gal
  DUMMY_OUTFALL        OUTFALL       0.00     0.00     0  00:00           0           0       0.000 gal
  SU_12200000_005600   STORAGE       0.00     0.00     0  00:00           0           0       0.000 gal
  SU_12200000_006050   STORAGE       0.00     0.00     0  00:00           0           0       0.000 gal
  
  
  **********************
  Node Surcharge Summary
  **********************
  
  No nodes were surcharged.
  
  
  *********************
  Node Flooding Summary
  *********************
  
  No nodes were flooded.
  
  
  **********************
  Storage Volume Summary
  **********************
  
  --------------------------------------------------------------------------------------------------
                         Average     Avg  Evap Exfil       Maximum     Max    Time of Max    Maximum
                          Volume    Pcnt  Pcnt  Pcnt        Volume    Pcnt     Occurrence    Outflow
  Storage Unit          1000 ft3    Full  Loss  Loss      1000 ft3    Full    days hr:min        CFS
  --------------------------------------------------------------------------------------------------
  SU_12200000_005600   -nan(ind)    -nan(ind)     0     0         0.000       0       0  00:00       0.00
  SU_12200000_006050   -nan(ind)    -nan(ind)     0     0         0.000       0       0  00:00       0.00
  
  
  ***********************
  Outfall Loading Summary
  ***********************
  
  -----------------------------------------------------------
                         Flow       Avg       Max       Total
                         Freq      Flow      Flow      Volume
  Outfall Node           Pcnt       CFS       CFS    10^6 gal
  -----------------------------------------------------------
  DUMMY_OUTFALL       -nan(ind)      0.00      0.00       0.000
  -----------------------------------------------------------
  System              -nan(ind)      0.00      0.00       0.000
  
  
  ********************
  Link Flow Summary
  ********************
  
  -----------------------------------------------------------------------------
                                 Maximum  Time of Max   Maximum    Max/    Max/
                                  |Flow|   Occurrence   |Veloc|    Full    Full
  Link                 Type          CFS  days hr:min    ft/sec    Flow   Depth
  -----------------------------------------------------------------------------
  C_12200000_001515    CHANNEL      0.00     0  00:00      0.00    0.00    0.00
  C_12200000_001629    CHANNEL      0.00     0  00:00      0.00    0.00    0.00
  C_12200000_001735    CHANNEL      0.00     0  00:00      0.00    0.00    0.00
  C_12200000_002186    CONDUIT      0.00     0  00:00      0.00    0.00    0.00
  C_12200000_002186_HC CHANNEL      0.00     0  00:00      0.00    0.00    0.00
  C_12200000_002221    CHANNEL      0.00     0  00:00      0.00    0.00    0.00
  C_12200000_002330    CHANNEL      0.00     0  00:00      0.00    0.00    0.00
  C_12200000_002410    CHANNEL      0.00     0  00:00      0.00    0.00    0.00
  C_12200000_002468    CONDUIT      0.00     0  00:00      0.00    0.00    0.00
  C_12200000_002468_HC CHANNEL      0.00     0  00:00      0.00    0.00    0.00
  C_12200000_002545    CHANNEL      0.00     0  00:00      0.00    0.00    0.00
  C_12200000_002601    CHANNEL      0.00     0  00:00      0.00    0.00    0.00
  C_12200000_002806    CHANNEL      0.00     0  00:00      0.00    0.00    0.00
  C_12200000_002948    CHANNEL      0.00     0  00:00      0.00    0.00    0.00
  C_12200000_003203    CHANNEL      0.00     0  00:00      0.00    0.00    0.00
  C_12200000_003474    CHANNEL      0.00     0  00:00      0.00    0.00    0.00
  C_12200000_003648    CHANNEL      0.00     0  00:00      0.00    0.00    0.00
  C_12200000_003803    CHANNEL      0.00     0  00:00      0.00    0.00    0.00
  C_12200000_003862    CONDUIT      0.00     0  00:00      0.00    0.00    0.00
  C_12200000_003862_2  CONDUIT      0.00     0  00:00      0.00    0.00    0.00
  C_12200000_003862_HC CHANNEL      0.00     0  00:00      0.00    0.00    0.00
  C_12200000_003929    CHANNEL      0.00     0  00:00      0.00    0.00    0.00
  C_12200000_004078    CHANNEL      0.00     0  00:00      0.00    0.00    0.00
  C_12200000_004165    CHANNEL      0.00     0  00:00      0.00    0.00    0.00
  C_12200000_004240    CONDUIT      0.00     0  00:00      0.00    0.00    0.00
  C_12200000_004240_2  CONDUIT      0.00     0  00:00      0.00    0.00    0.00
  C_12200000_004240_HC CHANNEL      0.00     0  00:00      0.00    0.00    0.00
  C_12200000_004315    CHANNEL      0.00     0  00:00      0.00    0.00    0.00
  C_12200000_004570    CHANNEL      0.00     0  00:00      0.00    0.00    0.00
  C_12200000_004842    CHANNEL      0.00     0  00:00      0.00    0.00    0.00
  C_12200000_005096    CHANNEL      0.00     0  00:00      0.00    0.00    0.00
  C_12200000_005255    CHANNEL      0.00     0  00:00      0.00    0.00    0.00
  C_12200000_005340    CONDUIT      0.00     0  00:00      0.00    0.00    0.00
  C_12200000_005340_HC CHANNEL      0.00     0  00:00      0.00    0.00    0.00
  C_12200000_005493    CHANNEL      0.00     0  00:00      0.00    0.00    0.00
  C_12200000_005579    CHANNEL      0.00     0  00:00      0.00    0.00    0.00
  C_12200000_005600    CONDUIT      0.00     0  00:00      0.00    0.00    0.00
  C_12200000_006050    CONDUIT      0.00     0  00:00      0.00    0.00    0.00
  C_12201000_000145    CHANNEL      0.00     0  00:00      0.00    0.00    0.00
  C_12201000_000199    CHANNEL      0.00     0  00:00      0.00    0.00    0.00
  C_12201000_000306    CONDUIT      0.00     0  00:00      0.00    0.00    0.00
  C_12201000_000306_HC CHANNEL      0.00     0  00:00      0.00    0.00    0.00
  C_12201000_000414    CHANNEL      0.00     0  00:00      0.00    0.00    0.00
  C_12201000_000596    CHANNEL      0.00     0  00:00      0.00    0.00    0.00
  C_12201000_000784    CHANNEL      0.00     0  00:00      0.00    0.00    0.00
  C_12201000_000972    CHANNEL      0.00     0  00:00      0.00    0.00    0.00
  C_12201000_001141    CHANNEL      0.00     0  00:00      0.00    0.00    0.00
  DUMMY_LINK           DUMMY        0.00     0  00:00
  OR_12200000_006050_1 ORIFICE      0.00     0  00:00                      0.00
  OR_12200000_006050_2 ORIFICE      0.00     0  00:00                      0.00
  OR_12200000_006050_3 ORIFICE      0.00     0  00:00                      0.00
  OR_12200000_006050_4 ORIFICE      0.00     0  00:00                      0.00
  W_12200000_005600_01 WEIR         0.00     0  00:00                      0.00
  W_12200000_005600_02 WEIR         0.00     0  00:00                      0.00
  W_12200000_006050_1  WEIR         0.00     0  00:00                      0.00
  W_12200000_006050_2  WEIR         0.00     0  00:00                      0.00
  W_12200000_006050_3  WEIR         0.00     0  00:00                      0.00
  
  
  ***************************
  Flow Classification Summary
  ***************************
  
  -------------------------------------------------------------------------------------
                      Adjusted    ---------- Fraction of Time in Flow Class ---------- 
                       /Actual         Up    Down  Sub   Sup   Up    Down  Norm  Inlet 
  Conduit               Length    Dry  Dry   Dry   Crit  Crit  Crit  Crit  Ltd   Ctrl  
  -------------------------------------------------------------------------------------
  C_12200000_001515       1.25   -nan(ind)  -nan(ind)  -nan(ind)  -nan(ind)  -nan(ind)  -nan(ind)  -nan(ind)  -nan(ind)  -nan(ind)
  C_12200000_001629       1.66   -nan(ind)  -nan(ind)  -nan(ind)  -nan(ind)  -nan(ind)  -nan(ind)  -nan(ind)  -nan(ind)  -nan(ind)
  C_12200000_001735       1.47   -nan(ind)  -nan(ind)  -nan(ind)  -nan(ind)  -nan(ind)  -nan(ind)  -nan(ind)  -nan(ind)  -nan(ind)
  C_12200000_002186       1.00   -nan(ind)  -nan(ind)  -nan(ind)  -nan(ind)  -nan(ind)  -nan(ind)  -nan(ind)  -nan(ind)  -nan(ind)
  C_12200000_002186_HC    1.00   -nan(ind)  -nan(ind)  -nan(ind)  -nan(ind)  -nan(ind)  -nan(ind)  -nan(ind)  -nan(ind)  -nan(ind)
  C_12200000_002221       6.11   -nan(ind)  -nan(ind)  -nan(ind)  -nan(ind)  -nan(ind)  -nan(ind)  -nan(ind)  -nan(ind)  -nan(ind)
  C_12200000_002330       2.02   -nan(ind)  -nan(ind)  -nan(ind)  -nan(ind)  -nan(ind)  -nan(ind)  -nan(ind)  -nan(ind)  -nan(ind)
  C_12200000_002410       2.34   -nan(ind)  -nan(ind)  -nan(ind)  -nan(ind)  -nan(ind)  -nan(ind)  -nan(ind)  -nan(ind)  -nan(ind)
  C_12200000_002468       1.28   -nan(ind)  -nan(ind)  -nan(ind)  -nan(ind)  -nan(ind)  -nan(ind)  -nan(ind)  -nan(ind)  -nan(ind)
  C_12200000_002468_HC    2.41   -nan(ind)  -nan(ind)  -nan(ind)  -nan(ind)  -nan(ind)  -nan(ind)  -nan(ind)  -nan(ind)  -nan(ind)
  C_12200000_002545       2.06   -nan(ind)  -nan(ind)  -nan(ind)  -nan(ind)  -nan(ind)  -nan(ind)  -nan(ind)  -nan(ind)  -nan(ind)
  C_12200000_002601       3.19   -nan(ind)  -nan(ind)  -nan(ind)  -nan(ind)  -nan(ind)  -nan(ind)  -nan(ind)  -nan(ind)  -nan(ind)
  C_12200000_002806       1.00   -nan(ind)  -nan(ind)  -nan(ind)  -nan(ind)  -nan(ind)  -nan(ind)  -nan(ind)  -nan(ind)  -nan(ind)
  C_12200000_002948       1.19   -nan(ind)  -nan(ind)  -nan(ind)  -nan(ind)  -nan(ind)  -nan(ind)  -nan(ind)  -nan(ind)  -nan(ind)
  C_12200000_003203       1.00   -nan(ind)  -nan(ind)  -nan(ind)  -nan(ind)  -nan(ind)  -nan(ind)  -nan(ind)  -nan(ind)  -nan(ind)
  C_12200000_003474       1.00   -nan(ind)  -nan(ind)  -nan(ind)  -nan(ind)  -nan(ind)  -nan(ind)  -nan(ind)  -nan(ind)  -nan(ind)
  C_12200000_003648       1.14   -nan(ind)  -nan(ind)  -nan(ind)  -nan(ind)  -nan(ind)  -nan(ind)  -nan(ind)  -nan(ind)  -nan(ind)
  C_12200000_003803       1.20   -nan(ind)  -nan(ind)  -nan(ind)  -nan(ind)  -nan(ind)  -nan(ind)  -nan(ind)  -nan(ind)  -nan(ind)
  C_12200000_003862       1.58   -nan(ind)  -nan(ind)  -nan(ind)  -nan(ind)  -nan(ind)  -nan(ind)  -nan(ind)  -nan(ind)  -nan(ind)
  C_12200000_003862_2     1.67   -nan(ind)  -nan(ind)  -nan(ind)  -nan(ind)  -nan(ind)  -nan(ind)  -nan(ind)  -nan(ind)  -nan(ind)
  C_12200000_003862_HC    1.93   -nan(ind)  -nan(ind)  -nan(ind)  -nan(ind)  -nan(ind)  -nan(ind)  -nan(ind)  -nan(ind)  -nan(ind)
  C_12200000_003929       3.75   -nan(ind)  -nan(ind)  -nan(ind)  -nan(ind)  -nan(ind)  -nan(ind)  -nan(ind)  -nan(ind)  -nan(ind)
  C_12200000_004078       1.90   -nan(ind)  -nan(ind)  -nan(ind)  -nan(ind)  -nan(ind)  -nan(ind)  -nan(ind)  -nan(ind)  -nan(ind)
  C_12200000_004165       3.81   -nan(ind)  -nan(ind)  -nan(ind)  -nan(ind)  -nan(ind)  -nan(ind)  -nan(ind)  -nan(ind)  -nan(ind)
  C_12200000_004240       1.95   -nan(ind)  -nan(ind)  -nan(ind)  -nan(ind)  -nan(ind)  -nan(ind)  -nan(ind)  -nan(ind)  -nan(ind)
  C_12200000_004240_2     1.85   -nan(ind)  -nan(ind)  -nan(ind)  -nan(ind)  -nan(ind)  -nan(ind)  -nan(ind)  -nan(ind)  -nan(ind)
  C_12200000_004240_HC    3.87   -nan(ind)  -nan(ind)  -nan(ind)  -nan(ind)  -nan(ind)  -nan(ind)  -nan(ind)  -nan(ind)  -nan(ind)
  C_12200000_004315       4.17   -nan(ind)  -nan(ind)  -nan(ind)  -nan(ind)  -nan(ind)  -nan(ind)  -nan(ind)  -nan(ind)  -nan(ind)
  C_12200000_004570       1.19   -nan(ind)  -nan(ind)  -nan(ind)  -nan(ind)  -nan(ind)  -nan(ind)  -nan(ind)  -nan(ind)  -nan(ind)
  C_12200000_004842       1.00   -nan(ind)  -nan(ind)  -nan(ind)  -nan(ind)  -nan(ind)  -nan(ind)  -nan(ind)  -nan(ind)  -nan(ind)
  C_12200000_005096       1.00   -nan(ind)  -nan(ind)  -nan(ind)  -nan(ind)  -nan(ind)  -nan(ind)  -nan(ind)  -nan(ind)  -nan(ind)
  C_12200000_005255       1.40   -nan(ind)  -nan(ind)  -nan(ind)  -nan(ind)  -nan(ind)  -nan(ind)  -nan(ind)  -nan(ind)  -nan(ind)
  C_12200000_005340       1.93   -nan(ind)  -nan(ind)  -nan(ind)  -nan(ind)  -nan(ind)  -nan(ind)  -nan(ind)  -nan(ind)  -nan(ind)
  C_12200000_005340_HC    1.64   -nan(ind)  -nan(ind)  -nan(ind)  -nan(ind)  -nan(ind)  -nan(ind)  -nan(ind)  -nan(ind)  -nan(ind)
  C_12200000_005493       1.00   -nan(ind)  -nan(ind)  -nan(ind)  -nan(ind)  -nan(ind)  -nan(ind)  -nan(ind)  -nan(ind)  -nan(ind)
  C_12200000_005579       1.00   -nan(ind)  -nan(ind)  -nan(ind)  -nan(ind)  -nan(ind)  -nan(ind)  -nan(ind)  -nan(ind)  -nan(ind)
  C_12200000_005600       8.41   -nan(ind)  -nan(ind)  -nan(ind)  -nan(ind)  -nan(ind)  -nan(ind)  -nan(ind)  -nan(ind)  -nan(ind)
  C_12200000_006050       1.00   -nan(ind)  -nan(ind)  -nan(ind)  -nan(ind)  -nan(ind)  -nan(ind)  -nan(ind)  -nan(ind)  -nan(ind)
  C_12201000_000145       1.00   -nan(ind)  -nan(ind)  -nan(ind)  -nan(ind)  -nan(ind)  -nan(ind)  -nan(ind)  -nan(ind)  -nan(ind)
  C_12201000_000199       2.80   -nan(ind)  -nan(ind)  -nan(ind)  -nan(ind)  -nan(ind)  -nan(ind)  -nan(ind)  -nan(ind)  -nan(ind)
  C_12201000_000306       1.12   -nan(ind)  -nan(ind)  -nan(ind)  -nan(ind)  -nan(ind)  -nan(ind)  -nan(ind)  -nan(ind)  -nan(ind)
  C_12201000_000306_HC    1.68   -nan(ind)  -nan(ind)  -nan(ind)  -nan(ind)  -nan(ind)  -nan(ind)  -nan(ind)  -nan(ind)  -nan(ind)
  C_12201000_000414       1.83   -nan(ind)  -nan(ind)  -nan(ind)  -nan(ind)  -nan(ind)  -nan(ind)  -nan(ind)  -nan(ind)  -nan(ind)
  C_12201000_000596       1.12   -nan(ind)  -nan(ind)  -nan(ind)  -nan(ind)  -nan(ind)  -nan(ind)  -nan(ind)  -nan(ind)  -nan(ind)
  C_12201000_000784       1.09   -nan(ind)  -nan(ind)  -nan(ind)  -nan(ind)  -nan(ind)  -nan(ind)  -nan(ind)  -nan(ind)  -nan(ind)
  C_12201000_000972       1.21   -nan(ind)  -nan(ind)  -nan(ind)  -nan(ind)  -nan(ind)  -nan(ind)  -nan(ind)  -nan(ind)  -nan(ind)
  C_12201000_001141       1.19   -nan(ind)  -nan(ind)  -nan(ind)  -nan(ind)  -nan(ind)  -nan(ind)  -nan(ind)  -nan(ind)  -nan(ind)
  
  
  *************************
  Conduit Surcharge Summary
  *************************
  
  No conduits were surcharged.
  

  Analysis begun on:  Sat Nov 30 08:09:55 2019
  Analysis ended on:  Sat Nov 30 08:09:55 2019
  Total elapsed time: < 1 sec