
  EPA STORM WATER MANAGEMENT MODEL - VERSION 5.1 (Build 5.1.013)
  --------------------------------------------------------------

  WARNING 04: minimum elevation drop used for Conduit 1
  WARNING 08: elevation drop exceeds length for Conduit 101.2
  WARNING 08: elevation drop exceeds length for Conduit 103.2
  WARNING 04: minimum elevation drop used for Conduit 104.2
  WARNING 08: elevation drop exceeds length for Conduit 105.2
  WARNING 08: elevation drop exceeds length for Conduit 105A
  WARNING 04: minimum elevation drop used for Conduit 105A.2
  WARNING 08: elevation drop exceeds length for Conduit 107
  WARNING 08: elevation drop exceeds length for Conduit 108
  WARNING 08: elevation drop exceeds length for Conduit 110
  WARNING 08: elevation drop exceeds length for Conduit 110A
  WARNING 08: elevation drop exceeds length for Conduit 111
  WARNING 08: elevation drop exceeds length for Conduit 112
  WARNING 08: elevation drop exceeds length for Conduit 113
  WARNING 04: minimum elevation drop used for Conduit 117
  WARNING 08: elevation drop exceeds length for Conduit 124A
  WARNING 08: elevation drop exceeds length for Conduit 124B
  WARNING 08: elevation drop exceeds length for Conduit 130A
  WARNING 04: minimum elevation drop used for Conduit 130B
  WARNING 08: elevation drop exceeds length for Conduit 131
  WARNING 04: minimum elevation drop used for Conduit 131A
  WARNING 04: minimum elevation drop used for Conduit 131B
  WARNING 08: elevation drop exceeds length for Conduit 131C
  WARNING 08: elevation drop exceeds length for Conduit 133
  WARNING 04: minimum elevation drop used for Conduit 136
  WARNING 08: elevation drop exceeds length for Conduit 138.2
  WARNING 08: elevation drop exceeds length for Conduit 142
  WARNING 04: minimum elevation drop used for Conduit 142A
  WARNING 08: elevation drop exceeds length for Conduit 143
  WARNING 04: minimum elevation drop used for Conduit 143.2
  WARNING 04: minimum elevation drop used for Conduit 143A.2
  WARNING 08: elevation drop exceeds length for Conduit 144
  WARNING 08: elevation drop exceeds length for Conduit 144.2
  WARNING 04: minimum elevation drop used for Conduit 144A
  WARNING 08: elevation drop exceeds length for Conduit 146
  WARNING 04: minimum elevation drop used for Conduit 148
  WARNING 04: minimum elevation drop used for Conduit 149
  WARNING 08: elevation drop exceeds length for Conduit 166
  WARNING 08: elevation drop exceeds length for Conduit 167
  WARNING 08: elevation drop exceeds length for Conduit 168
  WARNING 08: elevation drop exceeds length for Conduit 181
  WARNING 08: elevation drop exceeds length for Conduit 196
  WARNING 08: elevation drop exceeds length for Conduit 1A
  WARNING 08: elevation drop exceeds length for Conduit 218
  WARNING 04: minimum elevation drop used for Conduit 230
  WARNING 08: elevation drop exceeds length for Conduit 233
  WARNING 08: elevation drop exceeds length for Conduit 236
  WARNING 08: elevation drop exceeds length for Conduit 242
  WARNING 08: elevation drop exceeds length for Conduit 243
  WARNING 04: minimum elevation drop used for Conduit 243.2
  WARNING 04: minimum elevation drop used for Conduit 254A
  WARNING 08: elevation drop exceeds length for Conduit 256A
  WARNING 08: elevation drop exceeds length for Conduit 264
  WARNING 08: elevation drop exceeds length for Conduit 267
  WARNING 04: minimum elevation drop used for Conduit 270A
  WARNING 04: minimum elevation drop used for Conduit 272A
  WARNING 04: minimum elevation drop used for Conduit 272B
  WARNING 08: elevation drop exceeds length for Conduit 273
  WARNING 04: minimum elevation drop used for Conduit 273A
  WARNING 08: elevation drop exceeds length for Conduit 27A
  WARNING 04: minimum elevation drop used for Conduit 283A
  WARNING 04: minimum elevation drop used for Conduit 283B
  WARNING 08: elevation drop exceeds length for Conduit 284A
  WARNING 08: elevation drop exceeds length for Conduit 285
  WARNING 08: elevation drop exceeds length for Conduit 290
  WARNING 08: elevation drop exceeds length for Conduit 291
  WARNING 04: minimum elevation drop used for Conduit 297
  WARNING 08: elevation drop exceeds length for Conduit 3
  WARNING 04: minimum elevation drop used for Conduit 305
  WARNING 04: minimum elevation drop used for Conduit 305A
  WARNING 04: minimum elevation drop used for Conduit 305B
  WARNING 08: elevation drop exceeds length for Conduit 312
  WARNING 08: elevation drop exceeds length for Conduit 315
  WARNING 04: minimum elevation drop used for Conduit 315A
  WARNING 08: elevation drop exceeds length for Conduit 316
  WARNING 08: elevation drop exceeds length for Conduit 325A
  WARNING 04: minimum elevation drop used for Conduit 350A
  WARNING 04: minimum elevation drop used for Conduit 350B
  WARNING 08: elevation drop exceeds length for Conduit 352
  WARNING 04: minimum elevation drop used for Conduit 352A
  WARNING 08: elevation drop exceeds length for Conduit 352B
  WARNING 04: minimum elevation drop used for Conduit 352C
  WARNING 04: minimum elevation drop used for Conduit 352D
  WARNING 04: minimum elevation drop used for Conduit 352E
  WARNING 04: minimum elevation drop used for Conduit 352G
  WARNING 04: minimum elevation drop used for Conduit 352H
  WARNING 04: minimum elevation drop used for Conduit 352Y
  WARNING 04: minimum elevation drop used for Conduit 352Z
  WARNING 08: elevation drop exceeds length for Conduit 367
  WARNING 04: minimum elevation drop used for Conduit 367A
  WARNING 04: minimum elevation drop used for Conduit 367B
  WARNING 04: minimum elevation drop used for Conduit 374A
  WARNING 04: minimum elevation drop used for Conduit 374B
  WARNING 08: elevation drop exceeds length for Conduit 374C
  WARNING 08: elevation drop exceeds length for Conduit 376A
  WARNING 04: minimum elevation drop used for Conduit 376B
  WARNING 08: elevation drop exceeds length for Conduit 377A
  WARNING 08: elevation drop exceeds length for Conduit 385A
  WARNING 08: elevation drop exceeds length for Conduit 386
  WARNING 04: minimum elevation drop used for Conduit 386A
  WARNING 04: minimum elevation drop used for Conduit 386B
  WARNING 08: elevation drop exceeds length for Conduit 386C
  WARNING 08: elevation drop exceeds length for Conduit 40
  WARNING 08: elevation drop exceeds length for Conduit 408A
  WARNING 08: elevation drop exceeds length for Conduit 409A
  WARNING 04: minimum elevation drop used for Conduit 409A2
  WARNING 08: elevation drop exceeds length for Conduit 422A
  WARNING 08: elevation drop exceeds length for Conduit 424
  WARNING 04: minimum elevation drop used for Conduit 427
  WARNING 04: minimum elevation drop used for Conduit 428
  WARNING 04: minimum elevation drop used for Conduit 429
  WARNING 04: minimum elevation drop used for Conduit 430
  WARNING 04: minimum elevation drop used for Conduit 431
  WARNING 04: minimum elevation drop used for Conduit 433
  WARNING 08: elevation drop exceeds length for Conduit 440B
  WARNING 08: elevation drop exceeds length for Conduit 445
  WARNING 04: minimum elevation drop used for Conduit 461
  WARNING 08: elevation drop exceeds length for Conduit 475A
  WARNING 08: elevation drop exceeds length for Conduit 476
  WARNING 04: minimum elevation drop used for Conduit 492
  WARNING 04: minimum elevation drop used for Conduit 493
  WARNING 04: minimum elevation drop used for Conduit 496
  WARNING 08: elevation drop exceeds length for Conduit 497
  WARNING 04: minimum elevation drop used for Conduit 498
  WARNING 08: elevation drop exceeds length for Conduit 498A
  WARNING 08: elevation drop exceeds length for Conduit 510A
  WARNING 04: minimum elevation drop used for Conduit 524A
  WARNING 04: minimum elevation drop used for Conduit 524B
  WARNING 04: minimum elevation drop used for Conduit 524C
  WARNING 08: elevation drop exceeds length for Conduit 524D
  WARNING 04: minimum elevation drop used for Conduit 525A
  WARNING 04: minimum elevation drop used for Conduit 525B
  WARNING 08: elevation drop exceeds length for Conduit 525C
  WARNING 08: elevation drop exceeds length for Conduit 52C
  WARNING 04: minimum elevation drop used for Conduit 6A
  WARNING 04: minimum elevation drop used for Conduit 6B
  WARNING 08: elevation drop exceeds length for Conduit 704A1
  WARNING 08: elevation drop exceeds length for Conduit 712
  WARNING 04: minimum elevation drop used for Conduit 716
  WARNING 04: minimum elevation drop used for Conduit 716A
  WARNING 04: minimum elevation drop used for Conduit 716B
  WARNING 04: minimum elevation drop used for Conduit 716C
  WARNING 04: minimum elevation drop used for Conduit 716D
  WARNING 04: minimum elevation drop used for Conduit 716E
  WARNING 08: elevation drop exceeds length for Conduit 743
  WARNING 08: elevation drop exceeds length for Conduit 75
  WARNING 04: minimum elevation drop used for Conduit 79-2
  WARNING 04: minimum elevation drop used for Conduit 79.1
  WARNING 04: minimum elevation drop used for Conduit 79.2
  WARNING 04: minimum elevation drop used for Conduit 80
  WARNING 08: elevation drop exceeds length for Conduit 84
  WARNING 08: elevation drop exceeds length for Conduit 85
  WARNING 08: elevation drop exceeds length for Conduit 86
  WARNING 04: minimum elevation drop used for Conduit 86A
  WARNING 08: elevation drop exceeds length for Conduit 87
  WARNING 04: minimum elevation drop used for Conduit 90
  WARNING 04: minimum elevation drop used for Conduit 91
  WARNING 04: minimum elevation drop used for Conduit 92
  WARNING 08: elevation drop exceeds length for Conduit 93
  WARNING 04: minimum elevation drop used for Conduit A
  WARNING 04: minimum elevation drop used for Conduit B
  WARNING 04: minimum elevation drop used for Conduit C
  WARNING 04: minimum elevation drop used for Conduit D
  WARNING 04: minimum elevation drop used for Conduit E
  WARNING 04: minimum elevation drop used for Conduit F
  WARNING 04: minimum elevation drop used for Conduit G
  WARNING 04: minimum elevation drop used for Conduit H
  WARNING 04: minimum elevation drop used for Conduit I
  WARNING 04: minimum elevation drop used for Conduit J
  WARNING 04: minimum elevation drop used for Conduit K
  WARNING 04: minimum elevation drop used for Conduit L
  WARNING 04: minimum elevation drop used for Conduit M
  WARNING 04: minimum elevation drop used for Conduit N
  WARNING 04: minimum elevation drop used for Conduit O
  WARNING 04: minimum elevation drop used for Conduit P
  WARNING 04: minimum elevation drop used for Conduit Q
  WARNING 04: minimum elevation drop used for Conduit R
  WARNING 04: minimum elevation drop used for Conduit S
  WARNING 04: minimum elevation drop used for Conduit T
  WARNING 04: minimum elevation drop used for Conduit U
  WARNING 02: maximum depth increased for Node SSM180
  WARNING 02: maximum depth increased for Node SSM272
  
  *********************************************************
  NOTE: The summary statistics displayed in this report are
  based on results found at every computational time step,  
  not just on results from each reporting time step.
  *********************************************************
  
  ****************
  Analysis Options
  ****************
  Flow Units ............... CFS
  Process Models:
    Rainfall/Runoff ........ NO
    RDII ................... NO
    Snowmelt ............... NO
    Groundwater ............ NO
    Flow Routing ........... YES
    Ponding Allowed ........ NO
    Water Quality .......... NO
  Flow Routing Method ...... DYNWAVE
  Surcharge Method ......... EXTRAN
  Starting Date ............ 01/01/2002 00:00:00
  Ending Date .............. 01/01/2002 12:00:00
  Antecedent Dry Days ...... 5.0
  Report Time Step ......... 00:05:00
  Routing Time Step ........ 30.00 sec
  Variable Time Step ....... YES
  Maximum Trials ........... 8
  Number of Threads ........ 1
  Head Tolerance ........... 0.005000 ft
  
  
  **************************        Volume        Volume
  Flow Routing Continuity        acre-feet      10^6 gal
  **************************     ---------     ---------
  Dry Weather Inflow .......         0.000         0.000
  Wet Weather Inflow .......         0.000         0.000
  Groundwater Inflow .......         0.000         0.000
  RDII Inflow ..............         0.000         0.000
  External Inflow ..........         0.000         0.000
  External Outflow .........         0.000         0.000
  Flooding Loss ............         0.000         0.000
  Evaporation Loss .........         0.000         0.000
  Exfiltration Loss ........         0.000         0.000
  Initial Stored Volume ....         0.000         0.000
  Final Stored Volume ......         0.000         0.000
  Continuity Error (%) .....         0.000
  
  
  ***************************
  Time-Step Critical Elements
  ***************************
  None
  
  
  ********************************
  Highest Flow Instability Indexes
  ********************************
  All links are stable.
  
  
  ******************
  Node Depth Summary
  ******************
  
  ---------------------------------------------------------------------------------
                                 Average  Maximum  Maximum  Time of Max    Reported
                                   Depth    Depth      HGL   Occurrence   Max Depth
  Node                 Type         Feet     Feet     Feet  days hr:min        Feet
  ---------------------------------------------------------------------------------
  SSM1                 JUNCTION  -nan(ind)     0.00     0.00     0  00:00        0.00
  SSM100               JUNCTION  -nan(ind)     0.00   197.00     0  00:00        0.00
  SSM101               JUNCTION  -nan(ind)     0.00   274.00     0  00:00        0.00
  SSM101.2             JUNCTION  -nan(ind)     0.00     0.00     0  00:00        0.00
  SSM102               JUNCTION  -nan(ind)     0.00   275.19     0  00:00        0.00
  SSM103               JUNCTION  -nan(ind)     0.00   278.13     0  00:00        0.00
  SSM103.2             JUNCTION  -nan(ind)     0.00   210.00     0  00:00        0.00
  SSM104               JUNCTION  -nan(ind)     0.00   279.23     0  00:00        0.00
  SSM104.2             JUNCTION  -nan(ind)     0.00     0.00     0  00:00        0.00
  SSM105               JUNCTION  -nan(ind)     0.00   282.20     0  00:00        0.00
  SSM105.2             JUNCTION  -nan(ind)     0.00   193.57     0  00:00        0.00
  SSM105A              JUNCTION  -nan(ind)     0.00     0.00     0  00:00        0.00
  SSM105A.2            JUNCTION  -nan(ind)     0.00     0.00     0  00:00        0.00
  SSM107               JUNCTION  -nan(ind)     0.00   287.38     0  00:00        0.00
  SSM107.2             JUNCTION  -nan(ind)     0.00   200.17     0  00:00        0.00
  SSM108               JUNCTION  -nan(ind)     0.00     0.00     0  00:00        0.00
  SSM109               JUNCTION  -nan(ind)     0.00   176.37     0  00:00        0.00
  SSM110               JUNCTION  -nan(ind)     0.00     0.00     0  00:00        0.00
  SSM110A              JUNCTION  -nan(ind)     0.00   186.50     0  00:00        0.00
  SSM110B              JUNCTION  -nan(ind)     0.00   192.70     0  00:00        0.00
  SSM110C              JUNCTION  -nan(ind)     0.00   203.52     0  00:00        0.00
  SSM111               JUNCTION  -nan(ind)     0.00   170.35     0  00:00        0.00
  SSM112               JUNCTION  -nan(ind)     0.00     0.00     0  00:00        0.00
  SSM113               JUNCTION  -nan(ind)     0.00     0.00     0  00:00        0.00
  SSM114               JUNCTION  -nan(ind)     0.00   183.60     0  00:00        0.00
  SSM115               JUNCTION  -nan(ind)     0.00   174.39     0  00:00        0.00
  SSM116               JUNCTION  -nan(ind)     0.00   174.53     0  00:00        0.00
  SSM117               JUNCTION  -nan(ind)     0.00   173.52     0  00:00        0.00
  SSM118               JUNCTION  -nan(ind)     0.00   173.52     0  00:00        0.00
  SSM122               JUNCTION  -nan(ind)     0.00   116.21     0  00:00        0.00
  SSM124               JUNCTION  -nan(ind)     0.00   115.27     0  00:00        0.00
  SSM124A              JUNCTION  -nan(ind)     0.00     0.00     0  00:00        0.00
  SSM124B              JUNCTION  -nan(ind)     0.00     0.00     0  00:00        0.00
  SSM125               JUNCTION  -nan(ind)     0.00   114.17     0  00:00        0.00
  SSM126               JUNCTION  -nan(ind)     0.00   117.64     0  00:00        0.00
  SSM127               JUNCTION  -nan(ind)     0.00   173.46     0  00:00        0.00
  SSM128               JUNCTION  -nan(ind)     0.00   173.88     0  00:00        0.00
  SSM128A              JUNCTION  -nan(ind)     0.00   179.01     0  00:00        0.00
  SSM129               JUNCTION  -nan(ind)     0.00   178.78     0  00:00        0.00
  SSM130               JUNCTION  -nan(ind)     0.00   179.17     0  00:00        0.00
  SSM130A              JUNCTION  -nan(ind)     0.00     0.00     0  00:00        0.00
  SSM130B              JUNCTION  -nan(ind)     0.00     0.00     0  00:00        0.00
  SSM131               JUNCTION  -nan(ind)     0.00   174.26     0  00:00        0.00
  SSM131A              JUNCTION  -nan(ind)     0.00     0.00     0  00:00        0.00
  SSM131B              JUNCTION  -nan(ind)     0.00     0.00     0  00:00        0.00
  SSM131C              JUNCTION  -nan(ind)     0.00     0.00     0  00:00        0.00
  SSM132               JUNCTION  -nan(ind)     0.00   113.86     0  00:00        0.00
  SSM133               JUNCTION  -nan(ind)     0.00   114.68     0  00:00        0.00
  SSM133A              JUNCTION  -nan(ind)     0.00     0.00     0  00:00        0.00
  SSM134               JUNCTION  -nan(ind)     0.00   178.27     0  00:00        0.00
  SSM136               JUNCTION  -nan(ind)     0.00     0.00     0  00:00        0.00
  SSM137               JUNCTION  -nan(ind)     0.00     0.00     0  00:00        0.00
  SSM138               JUNCTION  -nan(ind)     0.00   180.39     0  00:00        0.00
  SSM138.2             JUNCTION  -nan(ind)     0.00     0.00     0  00:00        0.00
  SSM139               JUNCTION  -nan(ind)     0.00   180.32     0  00:00        0.00
  SSM139A              JUNCTION  -nan(ind)     0.00   188.20     0  00:00        0.00
  SSM140               JUNCTION  -nan(ind)     0.00   179.58     0  00:00        0.00
  SSM141               JUNCTION  -nan(ind)     0.00   180.10     0  00:00        0.00
  SSM142               JUNCTION  -nan(ind)     0.00     0.00     0  00:00        0.00
  SSM142A              JUNCTION  -nan(ind)     0.00     0.00     0  00:00        0.00
  SSM143               JUNCTION  -nan(ind)     0.00     0.00     0  00:00        0.00
  SSM143.2             JUNCTION  -nan(ind)     0.00     0.00     0  00:00        0.00
  SSM143A              JUNCTION  -nan(ind)     0.00     0.00     0  00:00        0.00
  SSM143A.2            JUNCTION  -nan(ind)     0.00     0.00     0  00:00        0.00
  SSM144               JUNCTION  -nan(ind)     0.00   183.52     0  00:00        0.00
  SSM144.2             JUNCTION  -nan(ind)     0.00   183.52     0  00:00        0.00
  SSM144A              JUNCTION  -nan(ind)     0.00     0.00     0  00:00        0.00
  SSM145               JUNCTION  -nan(ind)     0.00   181.62     0  00:00        0.00
  SSM146               JUNCTION  -nan(ind)     0.00   180.10     0  00:00        0.00
  SSM147.2             JUNCTION  -nan(ind)     0.00   188.07     0  00:00        0.00
  SSM148               JUNCTION  -nan(ind)     0.00     0.00     0  00:00        0.00
  SSM149               JUNCTION  -nan(ind)     0.00     0.00     0  00:00        0.00
  SSM15                JUNCTION  -nan(ind)     0.00   114.80     0  00:00        0.00
  SSM153               JUNCTION  -nan(ind)     0.00   112.26     0  00:00        0.00
  SSM154               JUNCTION  -nan(ind)     0.00   264.57     0  00:00        0.00
  SSM155               JUNCTION  -nan(ind)     0.00   264.27     0  00:00        0.00
  SSM156               JUNCTION  -nan(ind)     0.00   263.29     0  00:00        0.00
  SSM157               JUNCTION  -nan(ind)     0.00   262.71     0  00:00        0.00
  SSM158               JUNCTION  -nan(ind)     0.00   261.57     0  00:00        0.00
  SSM159               JUNCTION  -nan(ind)     0.00   265.62     0  00:00        0.00
  SSM160               JUNCTION  -nan(ind)     0.00   268.57     0  00:00        0.00
  SSM161               JUNCTION  -nan(ind)     0.00   121.47     0  00:00        0.00
  SSM162               JUNCTION  -nan(ind)     0.00   277.25     0  00:00        0.00
  SSM163               JUNCTION  -nan(ind)     0.00   268.22     0  00:00        0.00
  SSM164               JUNCTION  -nan(ind)     0.00   269.12     0  00:00        0.00
  SSM166               JUNCTION  -nan(ind)     0.00   284.61     0  00:00        0.00
  SSM167               JUNCTION  -nan(ind)     0.00   260.20     0  00:00        0.00
  SSM168               JUNCTION  -nan(ind)     0.00     0.00     0  00:00        0.00
  SSM169               JUNCTION  -nan(ind)     0.00   258.40     0  00:00        0.00
  SSM16A               JUNCTION  -nan(ind)     0.00   113.58     0  00:00        0.00
  SSM16B               JUNCTION  -nan(ind)     0.00   112.96     0  00:00        0.00
  SSM170               JUNCTION  -nan(ind)     0.00   251.69     0  00:00        0.00
  SSM171               JUNCTION  -nan(ind)     0.00     0.00     0  00:00        0.00
  SSM172               JUNCTION  -nan(ind)     0.00   243.40     0  00:00        0.00
  SSM173               JUNCTION  -nan(ind)     0.00   228.65     0  00:00        0.00
  SSM174               JUNCTION  -nan(ind)     0.00   224.96     0  00:00        0.00
  SSM175               JUNCTION  -nan(ind)     0.00   212.31     0  00:00        0.00
  SSM177               JUNCTION  -nan(ind)     0.00   208.15     0  00:00        0.00
  SSM178               JUNCTION  -nan(ind)     0.00   209.04     0  00:00        0.00
  SSM179               JUNCTION  -nan(ind)     0.00   217.00     0  00:00        0.00
  SSM180               JUNCTION  -nan(ind)     0.00     0.00     0  00:00        0.00
  SSM181               JUNCTION  -nan(ind)     0.00   212.50     0  00:00        0.00
  SSM182               JUNCTION  -nan(ind)     0.00     0.00     0  00:00        0.00
  SSM183               JUNCTION  -nan(ind)     0.00   217.90     0  00:00        0.00
  SSM184               JUNCTION  -nan(ind)     0.00   218.35     0  00:00        0.00
  SSM185               JUNCTION  -nan(ind)     0.00   205.10     0  00:00        0.00
  SSM186               JUNCTION  -nan(ind)     0.00   202.60     0  00:00        0.00
  SSM188               JUNCTION  -nan(ind)     0.00   200.40     0  00:00        0.00
  SSM188A              JUNCTION  -nan(ind)     0.00   209.85     0  00:00        0.00
  SSM189               JUNCTION  -nan(ind)     0.00   199.40     0  00:00        0.00
  SSM192               JUNCTION  -nan(ind)     0.00   191.00     0  00:00        0.00
  SSM193               JUNCTION  -nan(ind)     0.00   188.90     0  00:00        0.00
  SSM194               JUNCTION  -nan(ind)     0.00   176.66     0  00:00        0.00
  SSM195               JUNCTION  -nan(ind)     0.00   178.40     0  00:00        0.00
  SSM196               JUNCTION  -nan(ind)     0.00   178.53     0  00:00        0.00
  SSM197               JUNCTION  -nan(ind)     0.00   175.10     0  00:00        0.00
  SSM197A              JUNCTION  -nan(ind)     0.00     0.00     0  00:00        0.00
  SSM198               JUNCTION  -nan(ind)     0.00   173.59     0  00:00        0.00
  SSM199               JUNCTION  -nan(ind)     0.00   173.38     0  00:00        0.00
  SSM1A                JUNCTION  -nan(ind)     0.00   122.34     0  00:00        0.00
  SSM200               JUNCTION  -nan(ind)     0.00   120.43     0  00:00        0.00
  SSM201               JUNCTION  -nan(ind)     0.00   261.23     0  00:00        0.00
  SSM205               JUNCTION  -nan(ind)     0.00   174.73     0  00:00        0.00
  SSM206               JUNCTION  -nan(ind)     0.00   174.67     0  00:00        0.00
  SSM207               JUNCTION  -nan(ind)     0.00   158.00     0  00:00        0.00
  SSM208               JUNCTION  -nan(ind)     0.00   162.14     0  00:00        0.00
  SSM209               JUNCTION  -nan(ind)     0.00   163.79     0  00:00        0.00
  SSM210               JUNCTION  -nan(ind)     0.00   164.56     0  00:00        0.00
  SSM211               JUNCTION  -nan(ind)     0.00   170.00     0  00:00        0.00
  SSM212               JUNCTION  -nan(ind)     0.00   171.50     0  00:00        0.00
  SSM213               JUNCTION  -nan(ind)     0.00   174.00     0  00:00        0.00
  SSM214               JUNCTION  -nan(ind)     0.00   174.00     0  00:00        0.00
  SSM215               JUNCTION  -nan(ind)     0.00   143.50     0  00:00        0.00
  SSM216               JUNCTION  -nan(ind)     0.00   142.50     0  00:00        0.00
  SSM217               JUNCTION  -nan(ind)     0.00   127.98     0  00:00        0.00
  SSM218               JUNCTION  -nan(ind)     0.00     0.00     0  00:00        0.00
  SSM219               JUNCTION  -nan(ind)     0.00   139.03     0  00:00        0.00
  SSM219A              JUNCTION  -nan(ind)     0.00   129.07     0  00:00        0.00
  SSM220               JUNCTION  -nan(ind)     0.00   135.58     0  00:00        0.00
  SSM221               JUNCTION  -nan(ind)     0.00   157.68     0  00:00        0.00
  SSM222               JUNCTION  -nan(ind)     0.00   168.25     0  00:00        0.00
  SSM223               JUNCTION  -nan(ind)     0.00   159.58     0  00:00        0.00
  SSM225               JUNCTION  -nan(ind)     0.00   160.30     0  00:00        0.00
  SSM228               JUNCTION  -nan(ind)     0.00   122.74     0  00:00        0.00
  SSM228A              JUNCTION  -nan(ind)     0.00   123.86     0  00:00        0.00
  SSM229               JUNCTION  -nan(ind)     0.00     0.00     0  00:00        0.00
  SSM230               JUNCTION  -nan(ind)     0.00     0.00     0  00:00        0.00
  SSM231               JUNCTION  -nan(ind)     0.00   126.63     0  00:00        0.00
  SSM232               JUNCTION  -nan(ind)     0.00   135.98     0  00:00        0.00
  SSM233               JUNCTION  -nan(ind)     0.00   120.16     0  00:00        0.00
  SSM233A              JUNCTION  -nan(ind)     0.00     0.00     0  00:00        0.00
  SSM234               JUNCTION  -nan(ind)     0.00   126.35     0  00:00        0.00
  SSM235               JUNCTION  -nan(ind)     0.00   127.03     0  00:00        0.00
  SSM236               JUNCTION  -nan(ind)     0.00     0.00     0  00:00        0.00
  SSM237A              JUNCTION  -nan(ind)     0.00     0.00     0  00:00        0.00
  SSM24                JUNCTION  -nan(ind)     0.00   115.16     0  00:00        0.00
  SSM240               JUNCTION  -nan(ind)     0.00   147.00     0  00:00        0.00
  SSM242               JUNCTION  -nan(ind)     0.00     0.00     0  00:00        0.00
  SSM243               JUNCTION  -nan(ind)     0.00   137.00     0  00:00        0.00
  SSM243.2             JUNCTION  -nan(ind)     0.00     0.00     0  00:00        0.00
  SSM244               JUNCTION  -nan(ind)     0.00   180.20     0  00:00        0.00
  SSM245               JUNCTION  -nan(ind)     0.00   135.40     0  00:00        0.00
  SSM249               JUNCTION  -nan(ind)     0.00   130.50     0  00:00        0.00
  SSM25                JUNCTION  -nan(ind)     0.00   112.60     0  00:00        0.00
  SSM251               JUNCTION  -nan(ind)     0.00   135.40     0  00:00        0.00
  SSM254A              JUNCTION  -nan(ind)     0.00     0.00     0  00:00        0.00
  SSM255               JUNCTION  -nan(ind)     0.00   127.60     0  00:00        0.00
  SSM256               JUNCTION  -nan(ind)     0.00   128.90     0  00:00        0.00
  SSM256A              JUNCTION  -nan(ind)     0.00     0.00     0  00:00        0.00
  SSM257               JUNCTION  -nan(ind)     0.00   132.42     0  00:00        0.00
  SSM258               JUNCTION  -nan(ind)     0.00   134.90     0  00:00        0.00
  SSM259               JUNCTION  -nan(ind)     0.00     0.00     0  00:00        0.00
  SSM26                JUNCTION  -nan(ind)     0.00   111.42     0  00:00        0.00
  SSM260               JUNCTION  -nan(ind)     0.00   122.70     0  00:00        0.00
  SSM260A              JUNCTION  -nan(ind)     0.00   121.90     0  00:00        0.00
  SSM262               JUNCTION  -nan(ind)     0.00   122.21     0  00:00        0.00
  SSM262A              JUNCTION  -nan(ind)     0.00   122.04     0  00:00        0.00
  SSM263               JUNCTION  -nan(ind)     0.00   121.75     0  00:00        0.00
  SSM264               JUNCTION  -nan(ind)     0.00   121.40     0  00:00        0.00
  SSM264A              JUNCTION  -nan(ind)     0.00     0.00     0  00:00        0.00
  SSM265               JUNCTION  -nan(ind)     0.00   124.31     0  00:00        0.00
  SSM266               JUNCTION  -nan(ind)     0.00   124.52     0  00:00        0.00
  SSM267               JUNCTION  -nan(ind)     0.00   127.45     0  00:00        0.00
  SSM268               JUNCTION  -nan(ind)     0.00   127.85     0  00:00        0.00
  SSM269               JUNCTION  -nan(ind)     0.00   128.20     0  00:00        0.00
  SSM27                JUNCTION  -nan(ind)     0.00   111.25     0  00:00        0.00
  SSM270A              JUNCTION  -nan(ind)     0.00     0.00     0  00:00        0.00
  SSM271               JUNCTION  -nan(ind)     0.00   177.96     0  00:00        0.00
  SSM272               JUNCTION  -nan(ind)     0.00   115.76     0  00:00        0.00
  SSM272A              JUNCTION  -nan(ind)     0.00     0.00     0  00:00        0.00
  SSM272B              JUNCTION  -nan(ind)     0.00     0.00     0  00:00        0.00
  SSM273               JUNCTION  -nan(ind)     0.00   114.40     0  00:00        0.00
  SSM274               JUNCTION  -nan(ind)     0.00   112.86     0  00:00        0.00
  SSM274A              JUNCTION  -nan(ind)     0.00     0.00     0  00:00        0.00
  SSM275               JUNCTION  -nan(ind)     0.00   111.93     0  00:00        0.00
  SSM278               JUNCTION  -nan(ind)     0.00   121.00     0  00:00        0.00
  SSM279               JUNCTION  -nan(ind)     0.00   118.80     0  00:00        0.00
  SSM27A               JUNCTION  -nan(ind)     0.00     0.00     0  00:00        0.00
  SSM280               JUNCTION  -nan(ind)     0.00   121.78     0  00:00        0.00
  SSM281               JUNCTION  -nan(ind)     0.00   108.06     0  00:00        0.00
  SSM281C              JUNCTION  -nan(ind)     0.00     0.00     0  00:00        0.00
  SSM282               JUNCTION  -nan(ind)     0.00   108.64     0  00:00        0.00
  SSM283               JUNCTION  -nan(ind)     0.00   109.32     0  00:00        0.00
  SSM283A              JUNCTION  -nan(ind)     0.00     0.00     0  00:00        0.00
  SSM283B              JUNCTION  -nan(ind)     0.00     0.00     0  00:00        0.00
  SSM283C              JUNCTION  -nan(ind)     0.00     0.00     0  00:00        0.00
  SSM284               JUNCTION  -nan(ind)     0.00   109.55     0  00:00        0.00
  SSM284A              JUNCTION  -nan(ind)     0.00     0.00     0  00:00        0.00
  SSM285               JUNCTION  -nan(ind)     0.00   109.76     0  00:00        0.00
  SSM288               JUNCTION  -nan(ind)     0.00   119.03     0  00:00        0.00
  SSM290               JUNCTION  -nan(ind)     0.00   122.12     0  00:00        0.00
  SSM291               JUNCTION  -nan(ind)     0.00     0.00     0  00:00        0.00
  SSM292               JUNCTION  -nan(ind)     0.00   125.00     0  00:00        0.00
  SSM293               JUNCTION  -nan(ind)     0.00   125.10     0  00:00        0.00
  SSM294               JUNCTION  -nan(ind)     0.00   125.51     0  00:00        0.00
  SSM295               JUNCTION  -nan(ind)     0.00   110.85     0  00:00        0.00
  SSM297               JUNCTION  -nan(ind)     0.00   119.30     0  00:00        0.00
  SSM3                 JUNCTION  -nan(ind)     0.00     0.00     0  00:00        0.00
  SSM300               JUNCTION  -nan(ind)     0.00   119.60     0  00:00        0.00
  SSM301               JUNCTION  -nan(ind)     0.00   120.10     0  00:00        0.00
  SSM302               JUNCTION  -nan(ind)     0.00   120.33     0  00:00        0.00
  SSM305               JUNCTION  -nan(ind)     0.00     0.00     0  00:00        0.00
  SSM305A              JUNCTION  -nan(ind)     0.00     0.00     0  00:00        0.00
  SSM305B              JUNCTION  -nan(ind)     0.00     0.00     0  00:00        0.00
  SSM306               JUNCTION  -nan(ind)     0.00   124.10     0  00:00        0.00
  SSM307               JUNCTION  -nan(ind)     0.00   124.40     0  00:00        0.00
  SSM308               JUNCTION  -nan(ind)     0.00   136.62     0  00:00        0.00
  SSM309               JUNCTION  -nan(ind)     0.00   137.81     0  00:00        0.00
  SSM310               JUNCTION  -nan(ind)     0.00   138.00     0  00:00        0.00
  SSM312               JUNCTION  -nan(ind)     0.00   138.00     0  00:00        0.00
  SSM312A              JUNCTION  -nan(ind)     0.00     0.00     0  00:00        0.00
  SSM313               JUNCTION  -nan(ind)     0.00   130.00     0  00:00        0.00
  SSM315               JUNCTION  -nan(ind)     0.00   131.77     0  00:00        0.00
  SSM315A              JUNCTION  -nan(ind)     0.00     0.00     0  00:00        0.00
  SSM315B              JUNCTION  -nan(ind)     0.00     0.00     0  00:00        0.00
  SSM316               JUNCTION  -nan(ind)     0.00   135.00     0  00:00        0.00
  SSM317               JUNCTION  -nan(ind)     0.00   138.20     0  00:00        0.00
  SSM318               JUNCTION  -nan(ind)     0.00   144.54     0  00:00        0.00
  SSM319               JUNCTION  -nan(ind)     0.00   145.07     0  00:00        0.00
  SSM320               JUNCTION  -nan(ind)     0.00   145.80     0  00:00        0.00
  SSM325               JUNCTION  -nan(ind)     0.00   141.78     0  00:00        0.00
  SSM325A              JUNCTION  -nan(ind)     0.00     0.00     0  00:00        0.00
  SSM330               JUNCTION  -nan(ind)     0.00   131.53     0  00:00        0.00
  SSM331               JUNCTION  -nan(ind)     0.00   133.40     0  00:00        0.00
  SSM333               JUNCTION  -nan(ind)     0.00   144.70     0  00:00        0.00
  SSM334               JUNCTION  -nan(ind)     0.00   141.40     0  00:00        0.00
  SSM335               JUNCTION  -nan(ind)     0.00   151.00     0  00:00        0.00
  SSM336               JUNCTION  -nan(ind)     0.00   143.44     0  00:00        0.00
  SSM338               JUNCTION  -nan(ind)     0.00   147.00     0  00:00        0.00
  SSM340               JUNCTION  -nan(ind)     0.00   156.23     0  00:00        0.00
  SSM341               JUNCTION  -nan(ind)     0.00   157.40     0  00:00        0.00
  SSM344               JUNCTION  -nan(ind)     0.00   171.00     0  00:00        0.00
  SSM35                JUNCTION  -nan(ind)     0.00   120.09     0  00:00        0.00
  SSM350               JUNCTION  -nan(ind)     0.00   146.13     0  00:00        0.00
  SSM350A              JUNCTION  -nan(ind)     0.00     0.00     0  00:00        0.00
  SSM350B              JUNCTION  -nan(ind)     0.00     0.00     0  00:00        0.00
  SSM350C              JUNCTION  -nan(ind)     0.00     0.00     0  00:00        0.00
  SSM351               JUNCTION  -nan(ind)     0.00   149.41     0  00:00        0.00
  SSM352               JUNCTION  -nan(ind)     0.00   150.50     0  00:00        0.00
  SSM352A              JUNCTION  -nan(ind)     0.00     0.00     0  00:00        0.00
  SSM352B              JUNCTION  -nan(ind)     0.00     0.00     0  00:00        0.00
  SSM352C              JUNCTION  -nan(ind)     0.00     0.00     0  00:00        0.00
  SSM352D              JUNCTION  -nan(ind)     0.00     0.00     0  00:00        0.00
  SSM352E              JUNCTION  -nan(ind)     0.00     0.00     0  00:00        0.00
  SSM352F              JUNCTION  -nan(ind)     0.00     0.00     0  00:00        0.00
  SSM352G              JUNCTION  -nan(ind)     0.00     0.00     0  00:00        0.00
  SSM352H              JUNCTION  -nan(ind)     0.00     0.00     0  00:00        0.00
  SSM352Y              JUNCTION  -nan(ind)     0.00     0.00     0  00:00        0.00
  SSM352Z              JUNCTION  -nan(ind)     0.00     0.00     0  00:00        0.00
  SSM36                JUNCTION  -nan(ind)     0.00   120.63     0  00:00        0.00
  SSM367               JUNCTION  -nan(ind)     0.00   145.00     0  00:00        0.00
  SSM367A              JUNCTION  -nan(ind)     0.00     0.00     0  00:00        0.00
  SSM367B              JUNCTION  -nan(ind)     0.00     0.00     0  00:00        0.00
  SSM367C              JUNCTION  -nan(ind)     0.00     0.00     0  00:00        0.00
  SSM368               JUNCTION  -nan(ind)     0.00   143.37     0  00:00        0.00
  SSM37                JUNCTION  -nan(ind)     0.00   121.50     0  00:00        0.00
  SSM371               JUNCTION  -nan(ind)     0.00   145.71     0  00:00        0.00
  SSM372               JUNCTION  -nan(ind)     0.00   147.34     0  00:00        0.00
  SSM373               JUNCTION  -nan(ind)     0.00   150.00     0  00:00        0.00
  SSM374               JUNCTION  -nan(ind)     0.00   152.02     0  00:00        0.00
  SSM374A              JUNCTION  -nan(ind)     0.00     0.00     0  00:00        0.00
  SSM374B              JUNCTION  -nan(ind)     0.00     0.00     0  00:00        0.00
  SSM374C              JUNCTION  -nan(ind)     0.00     0.00     0  00:00        0.00
  SSM375               JUNCTION  -nan(ind)     0.00   139.62     0  00:00        0.00
  SSM376               JUNCTION  -nan(ind)     0.00   145.00     0  00:00        0.00
  SSM376A              JUNCTION  -nan(ind)     0.00     0.00     0  00:00        0.00
  SSM376B              JUNCTION  -nan(ind)     0.00     0.00     0  00:00        0.00
  SSM377               JUNCTION  -nan(ind)     0.00   137.72     0  00:00        0.00
  SSM377A              JUNCTION  -nan(ind)     0.00     0.00     0  00:00        0.00
  SSM378               JUNCTION  -nan(ind)     0.00   140.26     0  00:00        0.00
  SSM379               JUNCTION  -nan(ind)     0.00   140.78     0  00:00        0.00
  SSM380               JUNCTION  -nan(ind)     0.00   135.06     0  00:00        0.00
  SSM383               JUNCTION  -nan(ind)     0.00   144.20     0  00:00        0.00
  SSM384               JUNCTION  -nan(ind)     0.00   143.52     0  00:00        0.00
  SSM385               JUNCTION  -nan(ind)     0.00   142.84     0  00:00        0.00
  SSM385A              JUNCTION  -nan(ind)     0.00     0.00     0  00:00        0.00
  SSM386               JUNCTION  -nan(ind)     0.00   148.80     0  00:00        0.00
  SSM386A              JUNCTION  -nan(ind)     0.00     0.00     0  00:00        0.00
  SSM386B              JUNCTION  -nan(ind)     0.00     0.00     0  00:00        0.00
  SSM386C              JUNCTION  -nan(ind)     0.00     0.00     0  00:00        0.00
  SSM387               JUNCTION  -nan(ind)     0.00   151.61     0  00:00        0.00
  SSM389               JUNCTION  -nan(ind)     0.00   140.04     0  00:00        0.00
  SSM39                JUNCTION  -nan(ind)     0.00   120.17     0  00:00        0.00
  SSM396               JUNCTION  -nan(ind)     0.00   196.00     0  00:00        0.00
  SSM397               JUNCTION  -nan(ind)     0.00   205.80     0  00:00        0.00
  SSM398               JUNCTION  -nan(ind)     0.00   208.00     0  00:00        0.00
  SSM4                 JUNCTION  -nan(ind)     0.00   119.68     0  00:00        0.00
  SSM40                JUNCTION  -nan(ind)     0.00   119.20     0  00:00        0.00
  SSM400               JUNCTION  -nan(ind)     0.00   210.00     0  00:00        0.00
  SSM401               JUNCTION  -nan(ind)     0.00   207.89     0  00:00        0.00
  SSM403               JUNCTION  -nan(ind)     0.00   211.68     0  00:00        0.00
  SSM404               JUNCTION  -nan(ind)     0.00   212.36     0  00:00        0.00
  SSM405               JUNCTION  -nan(ind)     0.00   212.73     0  00:00        0.00
  SSM406               JUNCTION  -nan(ind)     0.00   213.00     0  00:00        0.00
  SSM407               JUNCTION  -nan(ind)     0.00   218.00     0  00:00        0.00
  SSM408               JUNCTION  -nan(ind)     0.00   207.00     0  00:00        0.00
  SSM409               JUNCTION  -nan(ind)     0.00   196.89     0  00:00        0.00
  SSM410               JUNCTION  -nan(ind)     0.00   195.01     0  00:00        0.00
  SSM411               JUNCTION  -nan(ind)     0.00   205.50     0  00:00        0.00
  SSM412               JUNCTION  -nan(ind)     0.00   191.00     0  00:00        0.00
  SSM413               JUNCTION  -nan(ind)     0.00   164.00     0  00:00        0.00
  SSM415               JUNCTION  -nan(ind)     0.00   217.00     0  00:00        0.00
  SSM416               JUNCTION  -nan(ind)     0.00   213.19     0  00:00        0.00
  SSM417               JUNCTION  -nan(ind)     0.00   221.30     0  00:00        0.00
  SSM418               JUNCTION  -nan(ind)     0.00   245.80     0  00:00        0.00
  SSM420               JUNCTION  -nan(ind)     0.00     0.00     0  00:00        0.00
  SSM421               JUNCTION  -nan(ind)     0.00   264.60     0  00:00        0.00
  SSM422               JUNCTION  -nan(ind)     0.00   282.40     0  00:00        0.00
  SSM422A              JUNCTION  -nan(ind)     0.00     0.00     0  00:00        0.00
  SSM424               JUNCTION  -nan(ind)     0.00   145.21     0  00:00        0.00
  SSM427               JUNCTION  -nan(ind)     0.00   127.00     0  00:00        0.00
  SSM428               JUNCTION  -nan(ind)     0.00     0.00     0  00:00        0.00
  SSM429               JUNCTION  -nan(ind)     0.00     0.00     0  00:00        0.00
  SSM430               JUNCTION  -nan(ind)     0.00     0.00     0  00:00        0.00
  SSM431               JUNCTION  -nan(ind)     0.00     0.00     0  00:00        0.00
  SSM433               JUNCTION  -nan(ind)     0.00     0.00     0  00:00        0.00
  SSM435               JUNCTION  -nan(ind)     0.00   115.63     0  00:00        0.00
  SSM436               JUNCTION  -nan(ind)     0.00   116.03     0  00:00        0.00
  SSM438               JUNCTION  -nan(ind)     0.00   117.16     0  00:00        0.00
  SSM439               JUNCTION  -nan(ind)     0.00   117.56     0  00:00        0.00
  SSM440               JUNCTION  -nan(ind)     0.00   119.46     0  00:00        0.00
  SSM440B              JUNCTION  -nan(ind)     0.00     0.00     0  00:00        0.00
  SSM444               JUNCTION  -nan(ind)     0.00   119.06     0  00:00        0.00
  SSM445               JUNCTION  -nan(ind)     0.00     0.00     0  00:00        0.00
  SSM45                JUNCTION  -nan(ind)     0.00   108.36     0  00:00        0.00
  SSM451               JUNCTION  -nan(ind)     0.00   116.84     0  00:00        0.00
  SSM453               JUNCTION  -nan(ind)     0.00   128.09     0  00:00        0.00
  SSM454               JUNCTION  -nan(ind)     0.00   127.25     0  00:00        0.00
  SSM455               JUNCTION  -nan(ind)     0.00   108.07     0  00:00        0.00
  SSM458               JUNCTION  -nan(ind)     0.00   118.36     0  00:00        0.00
  SSM45A               JUNCTION  -nan(ind)     0.00     0.00     0  00:00        0.00
  SSM46                JUNCTION  -nan(ind)     0.00   111.72     0  00:00        0.00
  SSM461               JUNCTION  -nan(ind)     0.00     0.00     0  00:00        0.00
  SSM464               JUNCTION  -nan(ind)     0.00     0.00     0  00:00        0.00
  SSM465               JUNCTION  -nan(ind)     0.00   127.50     0  00:00        0.00
  SSM466               JUNCTION  -nan(ind)     0.00   133.83     0  00:00        0.00
  SSM467               JUNCTION  -nan(ind)     0.00   137.29     0  00:00        0.00
  SSM468               JUNCTION  -nan(ind)     0.00   140.00     0  00:00        0.00
  SSM469               JUNCTION  -nan(ind)     0.00   142.54     0  00:00        0.00
  SSM470               JUNCTION  -nan(ind)     0.00   147.32     0  00:00        0.00
  SSM471               JUNCTION  -nan(ind)     0.00   148.42     0  00:00        0.00
  SSM472               JUNCTION  -nan(ind)     0.00   150.50     0  00:00        0.00
  SSM473               JUNCTION  -nan(ind)     0.00   152.59     0  00:00        0.00
  SSM474               JUNCTION  -nan(ind)     0.00   128.00     0  00:00        0.00
  SSM475               JUNCTION  -nan(ind)     0.00   128.50     0  00:00        0.00
  SSM475A              JUNCTION  -nan(ind)     0.00     0.00     0  00:00        0.00
  SSM476               JUNCTION  -nan(ind)     0.00   129.06     0  00:00        0.00
  SSM476A              JUNCTION  -nan(ind)     0.00     0.00     0  00:00        0.00
  SSM477               JUNCTION  -nan(ind)     0.00   129.31     0  00:00        0.00
  SSM478               JUNCTION  -nan(ind)     0.00   129.71     0  00:00        0.00
  SSM479               JUNCTION  -nan(ind)     0.00   130.05     0  00:00        0.00
  SSM48                JUNCTION  -nan(ind)     0.00   115.40     0  00:00        0.00
  SSM480               JUNCTION  -nan(ind)     0.00   130.79     0  00:00        0.00
  SSM481               JUNCTION  -nan(ind)     0.00   131.25     0  00:00        0.00
  SSM482               JUNCTION  -nan(ind)     0.00   131.49     0  00:00        0.00
  SSM483               JUNCTION  -nan(ind)     0.00   132.14     0  00:00        0.00
  SSM484               JUNCTION  -nan(ind)     0.00   138.24     0  00:00        0.00
  SSM485               JUNCTION  -nan(ind)     0.00   142.64     0  00:00        0.00
  SSM486               JUNCTION  -nan(ind)     0.00   150.78     0  00:00        0.00
  SSM487               JUNCTION  -nan(ind)     0.00   154.73     0  00:00        0.00
  SSM488               JUNCTION  -nan(ind)     0.00   160.81     0  00:00        0.00
  SSM489               JUNCTION  -nan(ind)     0.00   169.81     0  00:00        0.00
  SSM49                JUNCTION  -nan(ind)     0.00   113.40     0  00:00        0.00
  SSM490               JUNCTION  -nan(ind)     0.00   170.42     0  00:00        0.00
  SSM492               JUNCTION  -nan(ind)     0.00     0.00     0  00:00        0.00
  SSM493               JUNCTION  -nan(ind)     0.00     0.00     0  00:00        0.00
  SSM494               JUNCTION  -nan(ind)     0.00     0.00     0  00:00        0.00
  SSM496               JUNCTION  -nan(ind)     0.00     0.00     0  00:00        0.00
  SSM497               JUNCTION  -nan(ind)     0.00     0.00     0  00:00        0.00
  SSM498               JUNCTION  -nan(ind)     0.00     0.00     0  00:00        0.00
  SSM498A              JUNCTION  -nan(ind)     0.00     0.00     0  00:00        0.00
  SSM49A               JUNCTION  -nan(ind)     0.00     0.00     0  00:00        0.00
  SSM5                 JUNCTION  -nan(ind)     0.00   118.00     0  00:00        0.00
  SSM50                JUNCTION  -nan(ind)     0.00   118.26     0  00:00        0.00
  SSM507               JUNCTION  -nan(ind)     0.00   194.57     0  00:00        0.00
  SSM508               JUNCTION  -nan(ind)     0.00   190.60     0  00:00        0.00
  SSM509               JUNCTION  -nan(ind)     0.00   189.10     0  00:00        0.00
  SSM51                JUNCTION  -nan(ind)     0.00   109.76     0  00:00        0.00
  SSM510               JUNCTION  -nan(ind)     0.00   187.40     0  00:00        0.00
  SSM510A              JUNCTION  -nan(ind)     0.00     0.00     0  00:00        0.00
  SSM511               JUNCTION  -nan(ind)     0.00   182.10     0  00:00        0.00
  SSM512               JUNCTION  -nan(ind)     0.00   176.59     0  00:00        0.00
  SSM513               JUNCTION  -nan(ind)     0.00   169.31     0  00:00        0.00
  SSM514               JUNCTION  -nan(ind)     0.00   161.80     0  00:00        0.00
  SSM514A              JUNCTION  -nan(ind)     0.00     0.00     0  00:00        0.00
  SSM515               JUNCTION  -nan(ind)     0.00   157.77     0  00:00        0.00
  SSM516               JUNCTION  -nan(ind)     0.00   155.77     0  00:00        0.00
  SSM517               JUNCTION  -nan(ind)     0.00   153.95     0  00:00        0.00
  SSM518               JUNCTION  -nan(ind)     0.00   133.50     0  00:00        0.00
  SSM519               JUNCTION  -nan(ind)     0.00   134.59     0  00:00        0.00
  SSM52                JUNCTION  -nan(ind)     0.00     0.00     0  00:00        0.00
  SSM520               JUNCTION  -nan(ind)     0.00   135.43     0  00:00        0.00
  SSM521               JUNCTION  -nan(ind)     0.00   136.06     0  00:00        0.00
  SSM522               JUNCTION  -nan(ind)     0.00   136.52     0  00:00        0.00
  SSM523               JUNCTION  -nan(ind)     0.00   137.17     0  00:00        0.00
  SSM524               JUNCTION  -nan(ind)     0.00   157.07     0  00:00        0.00
  SSM524A              JUNCTION  -nan(ind)     0.00     0.00     0  00:00        0.00
  SSM524B              JUNCTION  -nan(ind)     0.00     0.00     0  00:00        0.00
  SSM524C              JUNCTION  -nan(ind)     0.00     0.00     0  00:00        0.00
  SSM524D              JUNCTION  -nan(ind)     0.00     0.00     0  00:00        0.00
  SSM525               JUNCTION  -nan(ind)     0.00   153.87     0  00:00        0.00
  SSM525A              JUNCTION  -nan(ind)     0.00     0.00     0  00:00        0.00
  SSM525B              JUNCTION  -nan(ind)     0.00     0.00     0  00:00        0.00
  SSM525C              JUNCTION  -nan(ind)     0.00     0.00     0  00:00        0.00
  SSM526               JUNCTION  -nan(ind)     0.00   150.00     0  00:00        0.00
  SSM527               JUNCTION  -nan(ind)     0.00   147.94     0  00:00        0.00
  SSM528               JUNCTION  -nan(ind)     0.00   146.10     0  00:00        0.00
  SSM529               JUNCTION  -nan(ind)     0.00   145.50     0  00:00        0.00
  SSM52C               JUNCTION  -nan(ind)     0.00   110.46     0  00:00        0.00
  SSM53                JUNCTION  -nan(ind)     0.00   110.72     0  00:00        0.00
  SSM55                JUNCTION  -nan(ind)     0.00   124.07     0  00:00        0.00
  SSM57                JUNCTION  -nan(ind)     0.00   106.85     0  00:00        0.00
  SSM57A               JUNCTION  -nan(ind)     0.00     0.00     0  00:00        0.00
  SSM6                 JUNCTION  -nan(ind)     0.00   117.09     0  00:00        0.00
  SSM60                JUNCTION  -nan(ind)     0.00   110.92     0  00:00        0.00
  SSM61                JUNCTION  -nan(ind)     0.00   116.80     0  00:00        0.00
  SSM62                JUNCTION  -nan(ind)     0.00   112.25     0  00:00        0.00
  SSM63                JUNCTION  -nan(ind)     0.00   121.04     0  00:00        0.00
  SSM64                JUNCTION  -nan(ind)     0.00   113.06     0  00:00        0.00
  SSM65                JUNCTION  -nan(ind)     0.00   114.75     0  00:00        0.00
  SSM67                JUNCTION  -nan(ind)     0.00   122.39     0  00:00        0.00
  SSM68                JUNCTION  -nan(ind)     0.00   120.00     0  00:00        0.00
  SSM69                JUNCTION  -nan(ind)     0.00   122.60     0  00:00        0.00
  SSM69A               JUNCTION  -nan(ind)     0.00     0.00     0  00:00        0.00
  SSM6A                JUNCTION  -nan(ind)     0.00     0.00     0  00:00        0.00
  SSM6B                JUNCTION  -nan(ind)     0.00     0.00     0  00:00        0.00
  SSM6C                JUNCTION  -nan(ind)     0.00     0.00     0  00:00        0.00
  SSM702               JUNCTION  -nan(ind)     0.00   131.86     0  00:00        0.00
  SSM703               JUNCTION  -nan(ind)     0.00   132.12     0  00:00        0.00
  SSM704               JUNCTION  -nan(ind)     0.00   133.43     0  00:00        0.00
  SSM704A              JUNCTION  -nan(ind)     0.00     0.00     0  00:00        0.00
  SSM705               JUNCTION  -nan(ind)     0.00   137.04     0  00:00        0.00
  SSM711               JUNCTION  -nan(ind)     0.00   157.85     0  00:00        0.00
  SSM712               JUNCTION  -nan(ind)     0.00   156.95     0  00:00        0.00
  SSM716               JUNCTION  -nan(ind)     0.00     0.00     0  00:00        0.00
  SSM716A              JUNCTION  -nan(ind)     0.00     0.00     0  00:00        0.00
  SSM716B              JUNCTION  -nan(ind)     0.00     0.00     0  00:00        0.00
  SSM716C              JUNCTION  -nan(ind)     0.00     0.00     0  00:00        0.00
  SSM716D              JUNCTION  -nan(ind)     0.00     0.00     0  00:00        0.00
  SSM716E              JUNCTION  -nan(ind)     0.00     0.00     0  00:00        0.00
  SSM716F              JUNCTION  -nan(ind)     0.00     0.00     0  00:00        0.00
  SSM731               JUNCTION  -nan(ind)     0.00   141.69     0  00:00        0.00
  SSM732               JUNCTION  -nan(ind)     0.00   140.76     0  00:00        0.00
  SSM733               JUNCTION  -nan(ind)     0.00   143.60     0  00:00        0.00
  SSM734               JUNCTION  -nan(ind)     0.00   142.50     0  00:00        0.00
  SSM735               JUNCTION  -nan(ind)     0.00   143.20     0  00:00        0.00
  SSM736               JUNCTION  -nan(ind)     0.00   139.31     0  00:00        0.00
  SSM743               JUNCTION  -nan(ind)     0.00     0.00     0  00:00        0.00
  SSM75                JUNCTION  -nan(ind)     0.00   118.23     0  00:00        0.00
  SSM77                JUNCTION  -nan(ind)     0.00   127.00     0  00:00        0.00
  SSM78                JUNCTION  -nan(ind)     0.00     0.00     0  00:00        0.00
  SSM79                JUNCTION  -nan(ind)     0.00   119.75     0  00:00        0.00
  SSM79-2              JUNCTION  -nan(ind)     0.00     0.00     0  00:00        0.00
  SSM79.1              JUNCTION  -nan(ind)     0.00     0.00     0  00:00        0.00
  SSM79.2              JUNCTION  -nan(ind)     0.00     0.00     0  00:00        0.00
  SSM80                JUNCTION  -nan(ind)     0.00     0.00     0  00:00        0.00
  SSM81                JUNCTION  -nan(ind)     0.00     0.00     0  00:00        0.00
  SSM82                JUNCTION  -nan(ind)     0.00   127.00     0  00:00        0.00
  SSM83                JUNCTION  -nan(ind)     0.00   120.31     0  00:00        0.00
  SSM83A               JUNCTION  -nan(ind)     0.00     0.00     0  00:00        0.00
  SSM84                JUNCTION  -nan(ind)     0.00     0.00     0  00:00        0.00
  SSM843               JUNCTION  -nan(ind)     0.00   142.25     0  00:00        0.00
  SSM85                JUNCTION  -nan(ind)     0.00   123.00     0  00:00        0.00
  SSM86                JUNCTION  -nan(ind)     0.00   124.27     0  00:00        0.00
  SSM86A               JUNCTION  -nan(ind)     0.00   123.00     0  00:00        0.00
  SSM87                JUNCTION  -nan(ind)     0.00     0.00     0  00:00        0.00
  SSM88                JUNCTION  -nan(ind)     0.00   130.50     0  00:00        0.00
  SSM89                JUNCTION  -nan(ind)     0.00     0.00     0  00:00        0.00
  SSM90                JUNCTION  -nan(ind)     0.00     0.00     0  00:00        0.00
  SSM91                JUNCTION  -nan(ind)     0.00     0.00     0  00:00        0.00
  SSM92                JUNCTION  -nan(ind)     0.00     0.00     0  00:00        0.00
  SSM93                JUNCTION  -nan(ind)     0.00   172.13     0  00:00        0.00
  SSM94                JUNCTION  -nan(ind)     0.00   177.42     0  00:00        0.00
  SSM95                JUNCTION  -nan(ind)     0.00   219.20     0  00:00        0.00
  SSM97                JUNCTION  -nan(ind)     0.00   214.49     0  00:00        0.00
  SSM98                JUNCTION  -nan(ind)     0.00   203.69     0  00:00        0.00
  SSM99                JUNCTION  -nan(ind)     0.00   203.00     0  00:00        0.00
  SSMA                 JUNCTION  -nan(ind)     0.00     0.00     0  00:00        0.00
  SSMB                 JUNCTION  -nan(ind)     0.00     0.00     0  00:00        0.00
  SSMC                 JUNCTION  -nan(ind)     0.00     0.00     0  00:00        0.00
  SSMD                 JUNCTION  -nan(ind)     0.00     0.00     0  00:00        0.00
  SSME                 JUNCTION  -nan(ind)     0.00     0.00     0  00:00        0.00
  SSMF                 JUNCTION  -nan(ind)     0.00     0.00     0  00:00        0.00
  SSMG                 JUNCTION  -nan(ind)     0.00     0.00     0  00:00        0.00
  SSMH                 JUNCTION  -nan(ind)     0.00     0.00     0  00:00        0.00
  SSMI                 JUNCTION  -nan(ind)     0.00     0.00     0  00:00        0.00
  SSMJ                 JUNCTION  -nan(ind)     0.00     0.00     0  00:00        0.00
  SSMK                 JUNCTION  -nan(ind)     0.00     0.00     0  00:00        0.00
  SSML                 JUNCTION  -nan(ind)     0.00     0.00     0  00:00        0.00
  SSMM                 JUNCTION  -nan(ind)     0.00     0.00     0  00:00        0.00
  SSMN                 JUNCTION  -nan(ind)     0.00     0.00     0  00:00        0.00
  SSMO                 JUNCTION  -nan(ind)     0.00     0.00     0  00:00        0.00
  SSMP                 JUNCTION  -nan(ind)     0.00     0.00     0  00:00        0.00
  SSMQ                 JUNCTION  -nan(ind)     0.00     0.00     0  00:00        0.00
  SSMR                 JUNCTION  -nan(ind)     0.00     0.00     0  00:00        0.00
  SSMS                 JUNCTION  -nan(ind)     0.00     0.00     0  00:00        0.00
  SSMT                 JUNCTION  -nan(ind)     0.00     0.00     0  00:00        0.00
  SSMU                 JUNCTION  -nan(ind)     0.00     0.00     0  00:00        0.00
  SSM58                JUNCTION  -nan(ind)     0.00   106.39     0  00:00        0.00
  SSM203               OUTFALL   -nan(ind)     0.00   173.04     0  00:00        0.00
  SSM369               OUTFALL   -nan(ind)     0.00   142.34     0  00:00        0.00
  1                    OUTFALL   -nan(ind)     0.00   173.04     0  00:00        0.00
  2                    OUTFALL   -nan(ind)     0.00   173.04     0  00:00        0.00
  3                    OUTFALL   -nan(ind)     0.00   142.34     0  00:00        0.00
  SSM409A              DIVIDER   -nan(ind)     0.00     0.00     0  00:00        0.00
  
  
  *******************
  Node Inflow Summary
  *******************
  
  -------------------------------------------------------------------------------------------------
                                  Maximum  Maximum                  Lateral       Total        Flow
                                  Lateral    Total  Time of Max      Inflow      Inflow     Balance
                                   Inflow   Inflow   Occurrence      Volume      Volume       Error
  Node                 Type           CFS      CFS  days hr:min    10^6 gal    10^6 gal     Percent
  -------------------------------------------------------------------------------------------------
  SSM1                 JUNCTION      0.00     0.00     0  00:00           0           0       0.000 gal
  SSM100               JUNCTION      0.00     0.00     0  00:00           0           0       0.000 gal
  SSM101               JUNCTION      0.00     0.00     0  00:00           0           0       0.000 gal
  SSM101.2             JUNCTION      0.00     0.00     0  00:00           0           0       0.000 gal
  SSM102               JUNCTION      0.00     0.00     0  00:00           0           0       0.000 gal
  SSM103               JUNCTION      0.00     0.00     0  00:00           0           0       0.000 gal
  SSM103.2             JUNCTION      0.00     0.00     0  00:00           0           0       0.000 gal
  SSM104               JUNCTION      0.00     0.00     0  00:00           0           0       0.000 gal
  SSM104.2             JUNCTION      0.00     0.00     0  00:00           0           0       0.000 gal
  SSM105               JUNCTION      0.00     0.00     0  00:00           0           0       0.000 gal
  SSM105.2             JUNCTION      0.00     0.00     0  00:00           0           0       0.000 gal
  SSM105A              JUNCTION      0.00     0.00     0  00:00           0           0       0.000 gal
  SSM105A.2            JUNCTION      0.00     0.00     0  00:00           0           0       0.000 gal
  SSM107               JUNCTION      0.00     0.00     0  00:00           0           0       0.000 gal
  SSM107.2             JUNCTION      0.00     0.00     0  00:00           0           0       0.000 gal
  SSM108               JUNCTION      0.00     0.00     0  00:00           0           0       0.000 gal
  SSM109               JUNCTION      0.00     0.00     0  00:00           0           0       0.000 gal
  SSM110               JUNCTION      0.00     0.00     0  00:00           0           0       0.000 gal
  SSM110A              JUNCTION      0.00     0.00     0  00:00           0           0       0.000 gal
  SSM110B              JUNCTION      0.00     0.00     0  00:00           0           0       0.000 gal
  SSM110C              JUNCTION      0.00     0.00     0  00:00           0           0       0.000 gal
  SSM111               JUNCTION      0.00     0.00     0  00:00           0           0       0.000 gal
  SSM112               JUNCTION      0.00     0.00     0  00:00           0           0       0.000 gal
  SSM113               JUNCTION      0.00     0.00     0  00:00           0           0       0.000 gal
  SSM114               JUNCTION      0.00     0.00     0  00:00           0           0       0.000 gal
  SSM115               JUNCTION      0.00     0.00     0  00:00           0           0       0.000 gal
  SSM116               JUNCTION      0.00     0.00     0  00:00           0           0       0.000 gal
  SSM117               JUNCTION      0.00     0.00     0  00:00           0           0       0.000 gal
  SSM118               JUNCTION      0.00     0.00     0  00:00           0           0       0.000 gal
  SSM122               JUNCTION      0.00     0.00     0  00:00           0           0       0.000 gal
  SSM124               JUNCTION      0.00     0.00     0  00:00           0           0       0.000 gal
  SSM124A              JUNCTION      0.00     0.00     0  00:00           0           0       0.000 gal
  SSM124B              JUNCTION      0.00     0.00     0  00:00           0           0       0.000 gal
  SSM125               JUNCTION      0.00     0.00     0  00:00           0           0       0.000 gal
  SSM126               JUNCTION      0.00     0.00     0  00:00           0           0       0.000 gal
  SSM127               JUNCTION      0.00     0.00     0  00:00           0           0       0.000 gal
  SSM128               JUNCTION      0.00     0.00     0  00:00           0           0       0.000 gal
  SSM128A              JUNCTION      0.00     0.00     0  00:00           0           0       0.000 gal
  SSM129               JUNCTION      0.00     0.00     0  00:00           0           0       0.000 gal
  SSM130               JUNCTION      0.00     0.00     0  00:00           0           0       0.000 gal
  SSM130A              JUNCTION      0.00     0.00     0  00:00           0           0       0.000 gal
  SSM130B              JUNCTION      0.00     0.00     0  00:00           0           0       0.000 gal
  SSM131               JUNCTION      0.00     0.00     0  00:00           0           0       0.000 gal
  SSM131A              JUNCTION      0.00     0.00     0  00:00           0           0       0.000 gal
  SSM131B              JUNCTION      0.00     0.00     0  00:00           0           0       0.000 gal
  SSM131C              JUNCTION      0.00     0.00     0  00:00           0           0       0.000 gal
  SSM132               JUNCTION      0.00     0.00     0  00:00           0           0       0.000 gal
  SSM133               JUNCTION      0.00     0.00     0  00:00           0           0       0.000 gal
  SSM133A              JUNCTION      0.00     0.00     0  00:00           0           0       0.000 gal
  SSM134               JUNCTION      0.00     0.00     0  00:00           0           0       0.000 gal
  SSM136               JUNCTION      0.00     0.00     0  00:00           0           0       0.000 gal
  SSM137               JUNCTION      0.00     0.00     0  00:00           0           0       0.000 gal
  SSM138               JUNCTION      0.00     0.00     0  00:00           0           0       0.000 gal
  SSM138.2             JUNCTION      0.00     0.00     0  00:00           0           0       0.000 gal
  SSM139               JUNCTION      0.00     0.00     0  00:00           0           0       0.000 gal
  SSM139A              JUNCTION      0.00     0.00     0  00:00           0           0       0.000 gal
  SSM140               JUNCTION      0.00     0.00     0  00:00           0           0       0.000 gal
  SSM141               JUNCTION      0.00     0.00     0  00:00           0           0       0.000 gal
  SSM142               JUNCTION      0.00     0.00     0  00:00           0           0       0.000 gal
  SSM142A              JUNCTION      0.00     0.00     0  00:00           0           0       0.000 gal
  SSM143               JUNCTION      0.00     0.00     0  00:00           0           0       0.000 gal
  SSM143.2             JUNCTION      0.00     0.00     0  00:00           0           0       0.000 gal
  SSM143A              JUNCTION      0.00     0.00     0  00:00           0           0       0.000 gal
  SSM143A.2            JUNCTION      0.00     0.00     0  00:00           0           0       0.000 gal
  SSM144               JUNCTION      0.00     0.00     0  00:00           0           0       0.000 gal
  SSM144.2             JUNCTION      0.00     0.00     0  00:00           0           0       0.000 gal
  SSM144A              JUNCTION      0.00     0.00     0  00:00           0           0       0.000 gal
  SSM145               JUNCTION      0.00     0.00     0  00:00           0           0       0.000 gal
  SSM146               JUNCTION      0.00     0.00     0  00:00           0           0       0.000 gal
  SSM147.2             JUNCTION      0.00     0.00     0  00:00           0           0       0.000 gal
  SSM148               JUNCTION      0.00     0.00     0  00:00           0           0       0.000 gal
  SSM149               JUNCTION      0.00     0.00     0  00:00           0           0       0.000 gal
  SSM15                JUNCTION      0.00     0.00     0  00:00           0           0       0.000 gal
  SSM153               JUNCTION      0.00     0.00     0  00:00           0           0       0.000 gal
  SSM154               JUNCTION      0.00     0.00     0  00:00           0           0       0.000 gal
  SSM155               JUNCTION      0.00     0.00     0  00:00           0           0       0.000 gal
  SSM156               JUNCTION      0.00     0.00     0  00:00           0           0       0.000 gal
  SSM157               JUNCTION      0.00     0.00     0  00:00           0           0       0.000 gal
  SSM158               JUNCTION      0.00     0.00     0  00:00           0           0       0.000 gal
  SSM159               JUNCTION      0.00     0.00     0  00:00           0           0       0.000 gal
  SSM160               JUNCTION      0.00     0.00     0  00:00           0           0       0.000 gal
  SSM161               JUNCTION      0.00     0.00     0  00:00           0           0       0.000 gal
  SSM162               JUNCTION      0.00     0.00     0  00:00           0           0       0.000 gal
  SSM163               JUNCTION      0.00     0.00     0  00:00           0           0       0.000 gal
  SSM164               JUNCTION      0.00     0.00     0  00:00           0           0       0.000 gal
  SSM166               JUNCTION      0.00     0.00     0  00:00           0           0       0.000 gal
  SSM167               JUNCTION      0.00     0.00     0  00:00           0           0       0.000 gal
  SSM168               JUNCTION      0.00     0.00     0  00:00           0           0       0.000 gal
  SSM169               JUNCTION      0.00     0.00     0  00:00           0           0       0.000 gal
  SSM16A               JUNCTION      0.00     0.00     0  00:00           0           0       0.000 gal
  SSM16B               JUNCTION      0.00     0.00     0  00:00           0           0       0.000 gal
  SSM170               JUNCTION      0.00     0.00     0  00:00           0           0       0.000 gal
  SSM171               JUNCTION      0.00     0.00     0  00:00           0           0       0.000 gal
  SSM172               JUNCTION      0.00     0.00     0  00:00           0           0       0.000 gal
  SSM173               JUNCTION      0.00     0.00     0  00:00           0           0       0.000 gal
  SSM174               JUNCTION      0.00     0.00     0  00:00           0           0       0.000 gal
  SSM175               JUNCTION      0.00     0.00     0  00:00           0           0       0.000 gal
  SSM177               JUNCTION      0.00     0.00     0  00:00           0           0       0.000 gal
  SSM178               JUNCTION      0.00     0.00     0  00:00           0           0       0.000 gal
  SSM179               JUNCTION      0.00     0.00     0  00:00           0           0       0.000 gal
  SSM180               JUNCTION      0.00     0.00     0  00:00           0           0       0.000 gal
  SSM181               JUNCTION      0.00     0.00     0  00:00           0           0       0.000 gal
  SSM182               JUNCTION      0.00     0.00     0  00:00           0           0       0.000 gal
  SSM183               JUNCTION      0.00     0.00     0  00:00           0           0       0.000 gal
  SSM184               JUNCTION      0.00     0.00     0  00:00           0           0       0.000 gal
  SSM185               JUNCTION      0.00     0.00     0  00:00           0           0       0.000 gal
  SSM186               JUNCTION      0.00     0.00     0  00:00           0           0       0.000 gal
  SSM188               JUNCTION      0.00     0.00     0  00:00           0           0       0.000 gal
  SSM188A              JUNCTION      0.00     0.00     0  00:00           0           0       0.000 gal
  SSM189               JUNCTION      0.00     0.00     0  00:00           0           0       0.000 gal
  SSM192               JUNCTION      0.00     0.00     0  00:00           0           0       0.000 gal
  SSM193               JUNCTION      0.00     0.00     0  00:00           0           0       0.000 gal
  SSM194               JUNCTION      0.00     0.00     0  00:00           0           0       0.000 gal
  SSM195               JUNCTION      0.00     0.00     0  00:00           0           0       0.000 gal
  SSM196               JUNCTION      0.00     0.00     0  00:00           0           0       0.000 gal
  SSM197               JUNCTION      0.00     0.00     0  00:00           0           0       0.000 gal
  SSM197A              JUNCTION      0.00     0.00     0  00:00           0           0       0.000 gal
  SSM198               JUNCTION      0.00     0.00     0  00:00           0           0       0.000 gal
  SSM199               JUNCTION      0.00     0.00     0  00:00           0           0       0.000 gal
  SSM1A                JUNCTION      0.00     0.00     0  00:00           0           0       0.000 gal
  SSM200               JUNCTION      0.00     0.00     0  00:00           0           0       0.000 gal
  SSM201               JUNCTION      0.00     0.00     0  00:00           0           0       0.000 gal
  SSM205               JUNCTION      0.00     0.00     0  00:00           0           0       0.000 gal
  SSM206               JUNCTION      0.00     0.00     0  00:00           0           0       0.000 gal
  SSM207               JUNCTION      0.00     0.00     0  00:00           0           0       0.000 gal
  SSM208               JUNCTION      0.00     0.00     0  00:00           0           0       0.000 gal
  SSM209               JUNCTION      0.00     0.00     0  00:00           0           0       0.000 gal
  SSM210               JUNCTION      0.00     0.00     0  00:00           0           0       0.000 gal
  SSM211               JUNCTION      0.00     0.00     0  00:00           0           0       0.000 gal
  SSM212               JUNCTION      0.00     0.00     0  00:00           0           0       0.000 gal
  SSM213               JUNCTION      0.00     0.00     0  00:00           0           0       0.000 gal
  SSM214               JUNCTION      0.00     0.00     0  00:00           0           0       0.000 gal
  SSM215               JUNCTION      0.00     0.00     0  00:00           0           0       0.000 gal
  SSM216               JUNCTION      0.00     0.00     0  00:00           0           0       0.000 gal
  SSM217               JUNCTION      0.00     0.00     0  00:00           0           0       0.000 gal
  SSM218               JUNCTION      0.00     0.00     0  00:00           0           0       0.000 gal
  SSM219               JUNCTION      0.00     0.00     0  00:00           0           0       0.000 gal
  SSM219A              JUNCTION      0.00     0.00     0  00:00           0           0       0.000 gal
  SSM220               JUNCTION      0.00     0.00     0  00:00           0           0       0.000 gal
  SSM221               JUNCTION      0.00     0.00     0  00:00           0           0       0.000 gal
  SSM222               JUNCTION      0.00     0.00     0  00:00           0           0       0.000 gal
  SSM223               JUNCTION      0.00     0.00     0  00:00           0           0       0.000 gal
  SSM225               JUNCTION      0.00     0.00     0  00:00           0           0       0.000 gal
  SSM228               JUNCTION      0.00     0.00     0  00:00           0           0       0.000 gal
  SSM228A              JUNCTION      0.00     0.00     0  00:00           0           0       0.000 gal
  SSM229               JUNCTION      0.00     0.00     0  00:00           0           0       0.000 gal
  SSM230               JUNCTION      0.00     0.00     0  00:00           0           0       0.000 gal
  SSM231               JUNCTION      0.00     0.00     0  00:00           0           0       0.000 gal
  SSM232               JUNCTION      0.00     0.00     0  00:00           0           0       0.000 gal
  SSM233               JUNCTION      0.00     0.00     0  00:00           0           0       0.000 gal
  SSM233A              JUNCTION      0.00     0.00     0  00:00           0           0       0.000 gal
  SSM234               JUNCTION      0.00     0.00     0  00:00           0           0       0.000 gal
  SSM235               JUNCTION      0.00     0.00     0  00:00           0           0       0.000 gal
  SSM236               JUNCTION      0.00     0.00     0  00:00           0           0       0.000 gal
  SSM237A              JUNCTION      0.00     0.00     0  00:00           0           0       0.000 gal
  SSM24                JUNCTION      0.00     0.00     0  00:00           0           0       0.000 gal
  SSM240               JUNCTION      0.00     0.00     0  00:00           0           0       0.000 gal
  SSM242               JUNCTION      0.00     0.00     0  00:00           0           0       0.000 gal
  SSM243               JUNCTION      0.00     0.00     0  00:00           0           0       0.000 gal
  SSM243.2             JUNCTION      0.00     0.00     0  00:00           0           0       0.000 gal
  SSM244               JUNCTION      0.00     0.00     0  00:00           0           0       0.000 gal
  SSM245               JUNCTION      0.00     0.00     0  00:00           0           0       0.000 gal
  SSM249               JUNCTION      0.00     0.00     0  00:00           0           0       0.000 gal
  SSM25                JUNCTION      0.00     0.00     0  00:00           0           0       0.000 gal
  SSM251               JUNCTION      0.00     0.00     0  00:00           0           0       0.000 gal
  SSM254A              JUNCTION      0.00     0.00     0  00:00           0           0       0.000 gal
  SSM255               JUNCTION      0.00     0.00     0  00:00           0           0       0.000 gal
  SSM256               JUNCTION      0.00     0.00     0  00:00           0           0       0.000 gal
  SSM256A              JUNCTION      0.00     0.00     0  00:00           0           0       0.000 gal
  SSM257               JUNCTION      0.00     0.00     0  00:00           0           0       0.000 gal
  SSM258               JUNCTION      0.00     0.00     0  00:00           0           0       0.000 gal
  SSM259               JUNCTION      0.00     0.00     0  00:00           0           0       0.000 gal
  SSM26                JUNCTION      0.00     0.00     0  00:00           0           0       0.000 gal
  SSM260               JUNCTION      0.00     0.00     0  00:00           0           0       0.000 gal
  SSM260A              JUNCTION      0.00     0.00     0  00:00           0           0       0.000 gal
  SSM262               JUNCTION      0.00     0.00     0  00:00           0           0       0.000 gal
  SSM262A              JUNCTION      0.00     0.00     0  00:00           0           0       0.000 gal
  SSM263               JUNCTION      0.00     0.00     0  00:00           0           0       0.000 gal
  SSM264               JUNCTION      0.00     0.00     0  00:00           0           0       0.000 gal
  SSM264A              JUNCTION      0.00     0.00     0  00:00           0           0       0.000 gal
  SSM265               JUNCTION      0.00     0.00     0  00:00           0           0       0.000 gal
  SSM266               JUNCTION      0.00     0.00     0  00:00           0           0       0.000 gal
  SSM267               JUNCTION      0.00     0.00     0  00:00           0           0       0.000 gal
  SSM268               JUNCTION      0.00     0.00     0  00:00           0           0       0.000 gal
  SSM269               JUNCTION      0.00     0.00     0  00:00           0           0       0.000 gal
  SSM27                JUNCTION      0.00     0.00     0  00:00           0           0       0.000 gal
  SSM270A              JUNCTION      0.00     0.00     0  00:00           0           0       0.000 gal
  SSM271               JUNCTION      0.00     0.00     0  00:00           0           0       0.000 gal
  SSM272               JUNCTION      0.00     0.00     0  00:00           0           0       0.000 gal
  SSM272A              JUNCTION      0.00     0.00     0  00:00           0           0       0.000 gal
  SSM272B              JUNCTION      0.00     0.00     0  00:00           0           0       0.000 gal
  SSM273               JUNCTION      0.00     0.00     0  00:00           0           0       0.000 gal
  SSM274               JUNCTION      0.00     0.00     0  00:00           0           0       0.000 gal
  SSM274A              JUNCTION      0.00     0.00     0  00:00           0           0       0.000 gal
  SSM275               JUNCTION      0.00     0.00     0  00:00           0           0       0.000 gal
  SSM278               JUNCTION      0.00     0.00     0  00:00           0           0       0.000 gal
  SSM279               JUNCTION      0.00     0.00     0  00:00           0           0       0.000 gal
  SSM27A               JUNCTION      0.00     0.00     0  00:00           0           0       0.000 gal
[...]
  477                     1.00   -nan(ind)  -nan(ind)  -nan(ind)  -nan(ind)  -nan(ind)  -nan(ind)  -nan(ind)  -nan(ind)  -nan(ind)
  478                     1.00   -nan(ind)  -nan(ind)  -nan(ind)  -nan(ind)  -nan(ind)  -nan(ind)  -nan(ind)  -nan(ind)  -nan(ind)
  479                     1.00   -nan(ind)  -nan(ind)  -nan(ind)  -nan(ind)  -nan(ind)  -nan(ind)  -nan(ind)  -nan(ind)  -nan(ind)
  48                      1.00   -nan(ind)  -nan(ind)  -nan(ind)  -nan(ind)  -nan(ind)  -nan(ind)  -nan(ind)  -nan(ind)  -nan(ind)
  480                     1.00   -nan(ind)  -nan(ind)  -nan(ind)  -nan(ind)  -nan(ind)  -nan(ind)  -nan(ind)  -nan(ind)  -nan(ind)
  481                     1.00   -nan(ind)  -nan(ind)  -nan(ind)  -nan(ind)  -nan(ind)  -nan(ind)  -nan(ind)  -nan(ind)  -nan(ind)
  482                     1.00   -nan(ind)  -nan(ind)  -nan(ind)  -nan(ind)  -nan(ind)  -nan(ind)  -nan(ind)  -nan(ind)  -nan(ind)
  483                     1.00   -nan(ind)  -nan(ind)  -nan(ind)  -nan(ind)  -nan(ind)  -nan(ind)  -nan(ind)  -nan(ind)  -nan(ind)
  484                     1.00   -nan(ind)  -nan(ind)  -nan(ind)  -nan(ind)  -nan(ind)  -nan(ind)  -nan(ind)  -nan(ind)  -nan(ind)
  485                     1.00   -nan(ind)  -nan(ind)  -nan(ind)  -nan(ind)  -nan(ind)  -nan(ind)  -nan(ind)  -nan(ind)  -nan(ind)
  486                     1.00   -nan(ind)  -nan(ind)  -nan(ind)  -nan(ind)  -nan(ind)  -nan(ind)  -nan(ind)  -nan(ind)  -nan(ind)
  487                     1.00   -nan(ind)  -nan(ind)  -nan(ind)  -nan(ind)  -nan(ind)  -nan(ind)  -nan(ind)  -nan(ind)  -nan(ind)
  488                     1.27   -nan(ind)  -nan(ind)  -nan(ind)  -nan(ind)  -nan(ind)  -nan(ind)  -nan(ind)  -nan(ind)  -nan(ind)
  489                     1.12   -nan(ind)  -nan(ind)  -nan(ind)  -nan(ind)  -nan(ind)  -nan(ind)  -nan(ind)  -nan(ind)  -nan(ind)
  49                      1.00   -nan(ind)  -nan(ind)  -nan(ind)  -nan(ind)  -nan(ind)  -nan(ind)  -nan(ind)  -nan(ind)  -nan(ind)
  490                     1.07   -nan(ind)  -nan(ind)  -nan(ind)  -nan(ind)  -nan(ind)  -nan(ind)  -nan(ind)  -nan(ind)  -nan(ind)
  492                     1.00   -nan(ind)  -nan(ind)  -nan(ind)  -nan(ind)  -nan(ind)  -nan(ind)  -nan(ind)  -nan(ind)  -nan(ind)
  493                     1.00   -nan(ind)  -nan(ind)  -nan(ind)  -nan(ind)  -nan(ind)  -nan(ind)  -nan(ind)  -nan(ind)  -nan(ind)
  494                     1.00   -nan(ind)  -nan(ind)  -nan(ind)  -nan(ind)  -nan(ind)  -nan(ind)  -nan(ind)  -nan(ind)  -nan(ind)
  496                     1.00   -nan(ind)  -nan(ind)  -nan(ind)  -nan(ind)  -nan(ind)  -nan(ind)  -nan(ind)  -nan(ind)  -nan(ind)
  497                     4.47   -nan(ind)  -nan(ind)  -nan(ind)  -nan(ind)  -nan(ind)  -nan(ind)  -nan(ind)  -nan(ind)  -nan(ind)
  498                     1.00   -nan(ind)  -nan(ind)  -nan(ind)  -nan(ind)  -nan(ind)  -nan(ind)  -nan(ind)  -nan(ind)  -nan(ind)
  498A                   39.61   -nan(ind)  -nan(ind)  -nan(ind)  -nan(ind)  -nan(ind)  -nan(ind)  -nan(ind)  -nan(ind)  -nan(ind)
  49A                     1.00   -nan(ind)  -nan(ind)  -nan(ind)  -nan(ind)  -nan(ind)  -nan(ind)  -nan(ind)  -nan(ind)  -nan(ind)
  5                       1.00   -nan(ind)  -nan(ind)  -nan(ind)  -nan(ind)  -nan(ind)  -nan(ind)  -nan(ind)  -nan(ind)  -nan(ind)
  50                      1.00   -nan(ind)  -nan(ind)  -nan(ind)  -nan(ind)  -nan(ind)  -nan(ind)  -nan(ind)  -nan(ind)  -nan(ind)
  507                     1.00   -nan(ind)  -nan(ind)  -nan(ind)  -nan(ind)  -nan(ind)  -nan(ind)  -nan(ind)  -nan(ind)  -nan(ind)
  508                     1.00   -nan(ind)  -nan(ind)  -nan(ind)  -nan(ind)  -nan(ind)  -nan(ind)  -nan(ind)  -nan(ind)  -nan(ind)
  509                     1.00   -nan(ind)  -nan(ind)  -nan(ind)  -nan(ind)  -nan(ind)  -nan(ind)  -nan(ind)  -nan(ind)  -nan(ind)
  51                      1.30   -nan(ind)  -nan(ind)  -nan(ind)  -nan(ind)  -nan(ind)  -nan(ind)  -nan(ind)  -nan(ind)  -nan(ind)
  510                     1.17   -nan(ind)  -nan(ind)  -nan(ind)  -nan(ind)  -nan(ind)  -nan(ind)  -nan(ind)  -nan(ind)  -nan(ind)
  510A                    2.42   -nan(ind)  -nan(ind)  -nan(ind)  -nan(ind)  -nan(ind)  -nan(ind)  -nan(ind)  -nan(ind)  -nan(ind)
  511                     1.00   -nan(ind)  -nan(ind)  -nan(ind)  -nan(ind)  -nan(ind)  -nan(ind)  -nan(ind)  -nan(ind)  -nan(ind)
  512                     1.00   -nan(ind)  -nan(ind)  -nan(ind)  -nan(ind)  -nan(ind)  -nan(ind)  -nan(ind)  -nan(ind)  -nan(ind)
  513                     1.00   -nan(ind)  -nan(ind)  -nan(ind)  -nan(ind)  -nan(ind)  -nan(ind)  -nan(ind)  -nan(ind)  -nan(ind)
  514                     1.00   -nan(ind)  -nan(ind)  -nan(ind)  -nan(ind)  -nan(ind)  -nan(ind)  -nan(ind)  -nan(ind)  -nan(ind)
  514A                    1.59   -nan(ind)  -nan(ind)  -nan(ind)  -nan(ind)  -nan(ind)  -nan(ind)  -nan(ind)  -nan(ind)  -nan(ind)
  515                     1.00   -nan(ind)  -nan(ind)  -nan(ind)  -nan(ind)  -nan(ind)  -nan(ind)  -nan(ind)  -nan(ind)  -nan(ind)
  516                     1.00   -nan(ind)  -nan(ind)  -nan(ind)  -nan(ind)  -nan(ind)  -nan(ind)  -nan(ind)  -nan(ind)  -nan(ind)
  517                     1.00   -nan(ind)  -nan(ind)  -nan(ind)  -nan(ind)  -nan(ind)  -nan(ind)  -nan(ind)  -nan(ind)  -nan(ind)
  518                     1.00   -nan(ind)  -nan(ind)  -nan(ind)  -nan(ind)  -nan(ind)  -nan(ind)  -nan(ind)  -nan(ind)  -nan(ind)
  519                     1.00   -nan(ind)  -nan(ind)  -nan(ind)  -nan(ind)  -nan(ind)  -nan(ind)  -nan(ind)  -nan(ind)  -nan(ind)
  52                      1.00   -nan(ind)  -nan(ind)  -nan(ind)  -nan(ind)  -nan(ind)  -nan(ind)  -nan(ind)  -nan(ind)  -nan(ind)
  520                     1.00   -nan(ind)  -nan(ind)  -nan(ind)  -nan(ind)  -nan(ind)  -nan(ind)  -nan(ind)  -nan(ind)  -nan(ind)
  521                     1.00   -nan(ind)  -nan(ind)  -nan(ind)  -nan(ind)  -nan(ind)  -nan(ind)  -nan(ind)  -nan(ind)  -nan(ind)
  522                     1.00   -nan(ind)  -nan(ind)  -nan(ind)  -nan(ind)  -nan(ind)  -nan(ind)  -nan(ind)  -nan(ind)  -nan(ind)
  523                     1.00   -nan(ind)  -nan(ind)  -nan(ind)  -nan(ind)  -nan(ind)  -nan(ind)  -nan(ind)  -nan(ind)  -nan(ind)
  524                     1.00   -nan(ind)  -nan(ind)  -nan(ind)  -nan(ind)  -nan(ind)  -nan(ind)  -nan(ind)  -nan(ind)  -nan(ind)
  524A                    1.00   -nan(ind)  -nan(ind)  -nan(ind)  -nan(ind)  -nan(ind)  -nan(ind)  -nan(ind)  -nan(ind)  -nan(ind)
  524B                    1.00   -nan(ind)  -nan(ind)  -nan(ind)  -nan(ind)  -nan(ind)  -nan(ind)  -nan(ind)  -nan(ind)  -nan(ind)
  524C                    1.00   -nan(ind)  -nan(ind)  -nan(ind)  -nan(ind)  -nan(ind)  -nan(ind)  -nan(ind)  -nan(ind)  -nan(ind)
  524D                    5.19   -nan(ind)  -nan(ind)  -nan(ind)  -nan(ind)  -nan(ind)  -nan(ind)  -nan(ind)  -nan(ind)  -nan(ind)
  525                     1.00   -nan(ind)  -nan(ind)  -nan(ind)  -nan(ind)  -nan(ind)  -nan(ind)  -nan(ind)  -nan(ind)  -nan(ind)
  525A                    1.00   -nan(ind)  -nan(ind)  -nan(ind)  -nan(ind)  -nan(ind)  -nan(ind)  -nan(ind)  -nan(ind)  -nan(ind)
  525B                    1.00   -nan(ind)  -nan(ind)  -nan(ind)  -nan(ind)  -nan(ind)  -nan(ind)  -nan(ind)  -nan(ind)  -nan(ind)
  525C                   10.07   -nan(ind)  -nan(ind)  -nan(ind)  -nan(ind)  -nan(ind)  -nan(ind)  -nan(ind)  -nan(ind)  -nan(ind)
  526                     1.00   -nan(ind)  -nan(ind)  -nan(ind)  -nan(ind)  -nan(ind)  -nan(ind)  -nan(ind)  -nan(ind)  -nan(ind)
  527                     1.00   -nan(ind)  -nan(ind)  -nan(ind)  -nan(ind)  -nan(ind)  -nan(ind)  -nan(ind)  -nan(ind)  -nan(ind)
  528                     1.00   -nan(ind)  -nan(ind)  -nan(ind)  -nan(ind)  -nan(ind)  -nan(ind)  -nan(ind)  -nan(ind)  -nan(ind)
  529                     1.18   -nan(ind)  -nan(ind)  -nan(ind)  -nan(ind)  -nan(ind)  -nan(ind)  -nan(ind)  -nan(ind)  -nan(ind)
  52C                    16.65   -nan(ind)  -nan(ind)  -nan(ind)  -nan(ind)  -nan(ind)  -nan(ind)  -nan(ind)  -nan(ind)  -nan(ind)
  53                      1.00   -nan(ind)  -nan(ind)  -nan(ind)  -nan(ind)  -nan(ind)  -nan(ind)  -nan(ind)  -nan(ind)  -nan(ind)
  55                      1.00   -nan(ind)  -nan(ind)  -nan(ind)  -nan(ind)  -nan(ind)  -nan(ind)  -nan(ind)  -nan(ind)  -nan(ind)
  57                      1.00   -nan(ind)  -nan(ind)  -nan(ind)  -nan(ind)  -nan(ind)  -nan(ind)  -nan(ind)  -nan(ind)  -nan(ind)
  57A                     1.00   -nan(ind)  -nan(ind)  -nan(ind)  -nan(ind)  -nan(ind)  -nan(ind)  -nan(ind)  -nan(ind)  -nan(ind)
  6                       1.00   -nan(ind)  -nan(ind)  -nan(ind)  -nan(ind)  -nan(ind)  -nan(ind)  -nan(ind)  -nan(ind)  -nan(ind)
  60                      1.00   -nan(ind)  -nan(ind)  -nan(ind)  -nan(ind)  -nan(ind)  -nan(ind)  -nan(ind)  -nan(ind)  -nan(ind)
  61                      1.00   -nan(ind)  -nan(ind)  -nan(ind)  -nan(ind)  -nan(ind)  -nan(ind)  -nan(ind)  -nan(ind)  -nan(ind)
  62                      1.00   -nan(ind)  -nan(ind)  -nan(ind)  -nan(ind)  -nan(ind)  -nan(ind)  -nan(ind)  -nan(ind)  -nan(ind)
  63                      1.00   -nan(ind)  -nan(ind)  -nan(ind)  -nan(ind)  -nan(ind)  -nan(ind)  -nan(ind)  -nan(ind)  -nan(ind)
  64                      1.21   -nan(ind)  -nan(ind)  -nan(ind)  -nan(ind)  -nan(ind)  -nan(ind)  -nan(ind)  -nan(ind)  -nan(ind)
  65                      1.00   -nan(ind)  -nan(ind)  -nan(ind)  -nan(ind)  -nan(ind)  -nan(ind)  -nan(ind)  -nan(ind)  -nan(ind)
  67                      1.00   -nan(ind)  -nan(ind)  -nan(ind)  -nan(ind)  -nan(ind)  -nan(ind)  -nan(ind)  -nan(ind)  -nan(ind)
  68                      1.00   -nan(ind)  -nan(ind)  -nan(ind)  -nan(ind)  -nan(ind)  -nan(ind)  -nan(ind)  -nan(ind)  -nan(ind)
  69                      1.00   -nan(ind)  -nan(ind)  -nan(ind)  -nan(ind)  -nan(ind)  -nan(ind)  -nan(ind)  -nan(ind)  -nan(ind)
  69A                     2.04   -nan(ind)  -nan(ind)  -nan(ind)  -nan(ind)  -nan(ind)  -nan(ind)  -nan(ind)  -nan(ind)  -nan(ind)
  6A                      1.00   -nan(ind)  -nan(ind)  -nan(ind)  -nan(ind)  -nan(ind)  -nan(ind)  -nan(ind)  -nan(ind)  -nan(ind)
  6B                      1.00   -nan(ind)  -nan(ind)  -nan(ind)  -nan(ind)  -nan(ind)  -nan(ind)  -nan(ind)  -nan(ind)  -nan(ind)
  6C                      1.00   -nan(ind)  -nan(ind)  -nan(ind)  -nan(ind)  -nan(ind)  -nan(ind)  -nan(ind)  -nan(ind)  -nan(ind)
  702                     1.00   -nan(ind)  -nan(ind)  -nan(ind)  -nan(ind)  -nan(ind)  -nan(ind)  -nan(ind)  -nan(ind)  -nan(ind)
  703                     1.51   -nan(ind)  -nan(ind)  -nan(ind)  -nan(ind)  -nan(ind)  -nan(ind)  -nan(ind)  -nan(ind)  -nan(ind)
  704                     1.00   -nan(ind)  -nan(ind)  -nan(ind)  -nan(ind)  -nan(ind)  -nan(ind)  -nan(ind)  -nan(ind)  -nan(ind)
  704A1                  17.40   -nan(ind)  -nan(ind)  -nan(ind)  -nan(ind)  -nan(ind)  -nan(ind)  -nan(ind)  -nan(ind)  -nan(ind)
  705                     1.00   -nan(ind)  -nan(ind)  -nan(ind)  -nan(ind)  -nan(ind)  -nan(ind)  -nan(ind)  -nan(ind)  -nan(ind)
  711                     1.00   -nan(ind)  -nan(ind)  -nan(ind)  -nan(ind)  -nan(ind)  -nan(ind)  -nan(ind)  -nan(ind)  -nan(ind)
  712                     2.60   -nan(ind)  -nan(ind)  -nan(ind)  -nan(ind)  -nan(ind)  -nan(ind)  -nan(ind)  -nan(ind)  -nan(ind)
  716                     1.00   -nan(ind)  -nan(ind)  -nan(ind)  -nan(ind)  -nan(ind)  -nan(ind)  -nan(ind)  -nan(ind)  -nan(ind)
  716A                    1.00   -nan(ind)  -nan(ind)  -nan(ind)  -nan(ind)  -nan(ind)  -nan(ind)  -nan(ind)  -nan(ind)  -nan(ind)
  716B                    1.00   -nan(ind)  -nan(ind)  -nan(ind)  -nan(ind)  -nan(ind)  -nan(ind)  -nan(ind)  -nan(ind)  -nan(ind)
  716C                    1.00   -nan(ind)  -nan(ind)  -nan(ind)  -nan(ind)  -nan(ind)  -nan(ind)  -nan(ind)  -nan(ind)  -nan(ind)
  716D                    1.00   -nan(ind)  -nan(ind)  -nan(ind)  -nan(ind)  -nan(ind)  -nan(ind)  -nan(ind)  -nan(ind)  -nan(ind)
  716E                    1.00   -nan(ind)  -nan(ind)  -nan(ind)  -nan(ind)  -nan(ind)  -nan(ind)  -nan(ind)  -nan(ind)  -nan(ind)
  716F                    2.17   -nan(ind)  -nan(ind)  -nan(ind)  -nan(ind)  -nan(ind)  -nan(ind)  -nan(ind)  -nan(ind)  -nan(ind)
  731                     1.00   -nan(ind)  -nan(ind)  -nan(ind)  -nan(ind)  -nan(ind)  -nan(ind)  -nan(ind)  -nan(ind)  -nan(ind)
  732                     1.00   -nan(ind)  -nan(ind)  -nan(ind)  -nan(ind)  -nan(ind)  -nan(ind)  -nan(ind)  -nan(ind)  -nan(ind)
  733                     1.00   -nan(ind)  -nan(ind)  -nan(ind)  -nan(ind)  -nan(ind)  -nan(ind)  -nan(ind)  -nan(ind)  -nan(ind)
  734                     1.00   -nan(ind)  -nan(ind)  -nan(ind)  -nan(ind)  -nan(ind)  -nan(ind)  -nan(ind)  -nan(ind)  -nan(ind)
  735                     1.00   -nan(ind)  -nan(ind)  -nan(ind)  -nan(ind)  -nan(ind)  -nan(ind)  -nan(ind)  -nan(ind)  -nan(ind)
  736                     1.00   -nan(ind)  -nan(ind)  -nan(ind)  -nan(ind)  -nan(ind)  -nan(ind)  -nan(ind)  -nan(ind)  -nan(ind)
  743                     2.27   -nan(ind)  -nan(ind)  -nan(ind)  -nan(ind)  -nan(ind)  -nan(ind)  -nan(ind)  -nan(ind)  -nan(ind)
  75                      2.43   -nan(ind)  -nan(ind)  -nan(ind)  -nan(ind)  -nan(ind)  -nan(ind)  -nan(ind)  -nan(ind)  -nan(ind)
  77                      1.00   -nan(ind)  -nan(ind)  -nan(ind)  -nan(ind)  -nan(ind)  -nan(ind)  -nan(ind)  -nan(ind)  -nan(ind)
  78                      2.51   -nan(ind)  -nan(ind)  -nan(ind)  -nan(ind)  -nan(ind)  -nan(ind)  -nan(ind)  -nan(ind)  -nan(ind)
  79                      1.00   -nan(ind)  -nan(ind)  -nan(ind)  -nan(ind)  -nan(ind)  -nan(ind)  -nan(ind)  -nan(ind)  -nan(ind)
  79-2                    1.00   -nan(ind)  -nan(ind)  -nan(ind)  -nan(ind)  -nan(ind)  -nan(ind)  -nan(ind)  -nan(ind)  -nan(ind)
  79.1                    1.00   -nan(ind)  -nan(ind)  -nan(ind)  -nan(ind)  -nan(ind)  -nan(ind)  -nan(ind)  -nan(ind)  -nan(ind)
  79.2                    1.00   -nan(ind)  -nan(ind)  -nan(ind)  -nan(ind)  -nan(ind)  -nan(ind)  -nan(ind)  -nan(ind)  -nan(ind)
  80                      1.00   -nan(ind)  -nan(ind)  -nan(ind)  -nan(ind)  -nan(ind)  -nan(ind)  -nan(ind)  -nan(ind)  -nan(ind)
  81                      1.00   -nan(ind)  -nan(ind)  -nan(ind)  -nan(ind)  -nan(ind)  -nan(ind)  -nan(ind)  -nan(ind)  -nan(ind)
  82                      1.00   -nan(ind)  -nan(ind)  -nan(ind)  -nan(ind)  -nan(ind)  -nan(ind)  -nan(ind)  -nan(ind)  -nan(ind)
  83                      1.00   -nan(ind)  -nan(ind)  -nan(ind)  -nan(ind)  -nan(ind)  -nan(ind)  -nan(ind)  -nan(ind)  -nan(ind)
  83A                     1.00   -nan(ind)  -nan(ind)  -nan(ind)  -nan(ind)  -nan(ind)  -nan(ind)  -nan(ind)  -nan(ind)  -nan(ind)
  84                      1.84   -nan(ind)  -nan(ind)  -nan(ind)  -nan(ind)  -nan(ind)  -nan(ind)  -nan(ind)  -nan(ind)  -nan(ind)
  843                     1.00   -nan(ind)  -nan(ind)  -nan(ind)  -nan(ind)  -nan(ind)  -nan(ind)  -nan(ind)  -nan(ind)  -nan(ind)
  85                     32.17   -nan(ind)  -nan(ind)  -nan(ind)  -nan(ind)  -nan(ind)  -nan(ind)  -nan(ind)  -nan(ind)  -nan(ind)
  86                      2.47   -nan(ind)  -nan(ind)  -nan(ind)  -nan(ind)  -nan(ind)  -nan(ind)  -nan(ind)  -nan(ind)  -nan(ind)
  86A                     1.00   -nan(ind)  -nan(ind)  -nan(ind)  -nan(ind)  -nan(ind)  -nan(ind)  -nan(ind)  -nan(ind)  -nan(ind)
  87                      2.29   -nan(ind)  -nan(ind)  -nan(ind)  -nan(ind)  -nan(ind)  -nan(ind)  -nan(ind)  -nan(ind)  -nan(ind)
  88                      2.51   -nan(ind)  -nan(ind)  -nan(ind)  -nan(ind)  -nan(ind)  -nan(ind)  -nan(ind)  -nan(ind)  -nan(ind)
  89                      3.12   -nan(ind)  -nan(ind)  -nan(ind)  -nan(ind)  -nan(ind)  -nan(ind)  -nan(ind)  -nan(ind)  -nan(ind)
  90                      1.00   -nan(ind)  -nan(ind)  -nan(ind)  -nan(ind)  -nan(ind)  -nan(ind)  -nan(ind)  -nan(ind)  -nan(ind)
  91                      1.00   -nan(ind)  -nan(ind)  -nan(ind)  -nan(ind)  -nan(ind)  -nan(ind)  -nan(ind)  -nan(ind)  -nan(ind)
  92                      1.00   -nan(ind)  -nan(ind)  -nan(ind)  -nan(ind)  -nan(ind)  -nan(ind)  -nan(ind)  -nan(ind)  -nan(ind)
  93                      1.95   -nan(ind)  -nan(ind)  -nan(ind)  -nan(ind)  -nan(ind)  -nan(ind)  -nan(ind)  -nan(ind)  -nan(ind)
  94                      1.00   -nan(ind)  -nan(ind)  -nan(ind)  -nan(ind)  -nan(ind)  -nan(ind)  -nan(ind)  -nan(ind)  -nan(ind)
  95                      1.00   -nan(ind)  -nan(ind)  -nan(ind)  -nan(ind)  -nan(ind)  -nan(ind)  -nan(ind)  -nan(ind)  -nan(ind)
  97                      1.00   -nan(ind)  -nan(ind)  -nan(ind)  -nan(ind)  -nan(ind)  -nan(ind)  -nan(ind)  -nan(ind)  -nan(ind)
  98                      1.00   -nan(ind)  -nan(ind)  -nan(ind)  -nan(ind)  -nan(ind)  -nan(ind)  -nan(ind)  -nan(ind)  -nan(ind)
  99                      1.00   -nan(ind)  -nan(ind)  -nan(ind)  -nan(ind)  -nan(ind)  -nan(ind)  -nan(ind)  -nan(ind)  -nan(ind)
  A                       1.46   -nan(ind)  -nan(ind)  -nan(ind)  -nan(ind)  -nan(ind)  -nan(ind)  -nan(ind)  -nan(ind)  -nan(ind)
  B                       1.00   -nan(ind)  -nan(ind)  -nan(ind)  -nan(ind)  -nan(ind)  -nan(ind)  -nan(ind)  -nan(ind)  -nan(ind)
  C                       1.00   -nan(ind)  -nan(ind)  -nan(ind)  -nan(ind)  -nan(ind)  -nan(ind)  -nan(ind)  -nan(ind)  -nan(ind)
  D                       1.00   -nan(ind)  -nan(ind)  -nan(ind)  -nan(ind)  -nan(ind)  -nan(ind)  -nan(ind)  -nan(ind)  -nan(ind)
  E                       1.00   -nan(ind)  -nan(ind)  -nan(ind)  -nan(ind)  -nan(ind)  -nan(ind)  -nan(ind)  -nan(ind)  -nan(ind)
  F                       1.00   -nan(ind)  -nan(ind)  -nan(ind)  -nan(ind)  -nan(ind)  -nan(ind)  -nan(ind)  -nan(ind)  -nan(ind)
  G                       1.00   -nan(ind)  -nan(ind)  -nan(ind)  -nan(ind)  -nan(ind)  -nan(ind)  -nan(ind)  -nan(ind)  -nan(ind)
  H                       1.00   -nan(ind)  -nan(ind)  -nan(ind)  -nan(ind)  -nan(ind)  -nan(ind)  -nan(ind)  -nan(ind)  -nan(ind)
  I                       1.00   -nan(ind)  -nan(ind)  -nan(ind)  -nan(ind)  -nan(ind)  -nan(ind)  -nan(ind)  -nan(ind)  -nan(ind)
  J                       1.00   -nan(ind)  -nan(ind)  -nan(ind)  -nan(ind)  -nan(ind)  -nan(ind)  -nan(ind)  -nan(ind)  -nan(ind)
  K                       1.00   -nan(ind)  -nan(ind)  -nan(ind)  -nan(ind)  -nan(ind)  -nan(ind)  -nan(ind)  -nan(ind)  -nan(ind)
  L                       1.00   -nan(ind)  -nan(ind)  -nan(ind)  -nan(ind)  -nan(ind)  -nan(ind)  -nan(ind)  -nan(ind)  -nan(ind)
  M                       1.00   -nan(ind)  -nan(ind)  -nan(ind)  -nan(ind)  -nan(ind)  -nan(ind)  -nan(ind)  -nan(ind)  -nan(ind)
  N                       1.00   -nan(ind)  -nan(ind)  -nan(ind)  -nan(ind)  -nan(ind)  -nan(ind)  -nan(ind)  -nan(ind)  -nan(ind)
  O                       1.00   -nan(ind)  -nan(ind)  -nan(ind)  -nan(ind)  -nan(ind)  -nan(ind)  -nan(ind)  -nan(ind)  -nan(ind)
  P                       1.00   -nan(ind)  -nan(ind)  -nan(ind)  -nan(ind)  -nan(ind)  -nan(ind)  -nan(ind)  -nan(ind)  -nan(ind)
  Q                       1.00   -nan(ind)  -nan(ind)  -nan(ind)  -nan(ind)  -nan(ind)  -nan(ind)  -nan(ind)  -nan(ind)  -nan(ind)
  R                       1.00   -nan(ind)  -nan(ind)  -nan(ind)  -nan(ind)  -nan(ind)  -nan(ind)  -nan(ind)  -nan(ind)  -nan(ind)
  S                       1.00   -nan(ind)  -nan(ind)  -nan(ind)  -nan(ind)  -nan(ind)  -nan(ind)  -nan(ind)  -nan(ind)  -nan(ind)
  T                       1.00   -nan(ind)  -nan(ind)  -nan(ind)  -nan(ind)  -nan(ind)  -nan(ind)  -nan(ind)  -nan(ind)  -nan(ind)
  U                       1.00   -nan(ind)  -nan(ind)  -nan(ind)  -nan(ind)  -nan(ind)  -nan(ind)  -nan(ind)  -nan(ind)  -nan(ind)
  
  
  *************************
  Conduit Surcharge Summary
  *************************
  
  No conduits were surcharged.
  

  Analysis begun on:  Sat Nov 30 08:09:55 2019
  Analysis ended on:  Sat Nov 30 08:09:55 2019
  Total elapsed time: < 1 sec