
  EPA STORM WATER MANAGEMENT MODEL - VERSION 5.1 (Build 5.1.013)
  --------------------------------------------------------------

  WARNING 04: minimum elevation drop used for Conduit CDM63
  WARNING 04: minimum elevation drop used for Conduit CP4157
  WARNING 04: minimum elevation drop used for Conduit CP5484
  WARNING 04: minimum elevation drop used for Conduit LowSiphDS_C
  WARNING 10: crest elevation raised to downstream invert for regulator Link 70
  WARNING 02: maximum depth increased for Node Bradford
  WARNING 02: maximum depth increased for Node CDM28
  WARNING 02: maximum depth increased for Node CDM29
  WARNING 02: maximum depth increased for Node CDM31
  WARNING 02: maximum depth increased for Node CDM34
  WARNING 02: maximum depth increased for Node SMH-6035
  WARNING 02: maximum depth increased for Node SMH-6048
  WARNING 02: maximum depth increased for Node SMH-6048A
  WARNING 02: maximum depth increased for Node SMH-6049
  WARNING 02: maximum depth increased for Node SMH-6050AA
  WARNING 02: maximum depth increased for Node SMH-6050C
  WARNING 02: maximum depth increased for Node SMH-6226
  WARNING 02: maximum depth increased for Node SMH-6272
  WARNING 02: maximum depth increased for Node SMH-6302
  
  *********************************************************
  NOTE: The summary statistics displayed in this report are
  based on results found at every computational time step,  
  not just on results from each reporting time step.
  *********************************************************
  
  ****************
  Analysis Options
  ****************
  Flow Units ............... CFS
  Process Models:
    Rainfall/Runoff ........ YES
    RDII ................... NO
    Snowmelt ............... NO
    Groundwater ............ NO
    Flow Routing ........... YES
    Ponding Allowed ........ NO
    Water Quality .......... NO
  Infiltration Method ...... GREEN_AMPT
  Flow Routing Method ...... DYNWAVE
  Surcharge Method ......... EXTRAN
  Starting Date ............ 09/10/2003 08:00:00
  Ending Date .............. 09/11/2003 05:00:00
  Antecedent Dry Days ...... 0.0
  Report Time Step ......... 00:15:00
  Wet Time Step ............ 00:05:00
  Dry Time Step ............ 00:15:00
  Routing Time Step ........ 10.00 sec
  Variable Time Step ....... YES
  Maximum Trials ........... 8
  Number of Threads ........ 1
  Head Tolerance ........... 0.005000 ft
  
  
  **************************        Volume         Depth
  Runoff Quantity Continuity     acre-feet        inches
  **************************     ---------       -------
  Total Precipitation ......         0.000         0.000
  Evaporation Loss .........         0.000         0.000
  Infiltration Loss ........         0.000         0.000
  Surface Runoff ...........         0.000         0.000
  Final Storage ............         0.000         0.000
  Continuity Error (%) .....         0.000
  
  
  **************************        Volume        Volume
  Flow Routing Continuity        acre-feet      10^6 gal
  **************************     ---------     ---------
  Dry Weather Inflow .......         0.000         0.000
  Wet Weather Inflow .......         0.000         0.000
  Groundwater Inflow .......         0.000         0.000
  RDII Inflow ..............         0.000         0.000
  External Inflow ..........         0.000         0.000
  External Outflow .........         0.000         0.000
  Flooding Loss ............         0.000         0.000
  Evaporation Loss .........         0.000         0.000
  Exfiltration Loss ........         0.000         0.000
  Initial Stored Volume ....         0.428         0.140
  Final Stored Volume ......         0.428         0.140
  Continuity Error (%) .....         0.000
  
  
  ***************************
  Time-Step Critical Elements
  ***************************
  None
  
  
  ********************************
  Highest Flow Instability Indexes
  ********************************
  All links are stable.
  
  
  ***************************
  Subcatchment Runoff Summary
  ***************************
  
  ------------------------------------------------------------------------------------------------------------------------------
                            Total      Total      Total      Total     Imperv       Perv      Total       Total     Peak  Runoff
                           Precip      Runon       Evap      Infil     Runoff     Runoff     Runoff      Runoff   Runoff   Coeff
  Subcatchment                 in         in         in         in         in         in         in    10^6 gal      CFS
  ------------------------------------------------------------------------------------------------------------------------------
  Cat_CSO1                   0.00       0.00       0.00       0.00       0.00       0.00       0.00        0.00     0.00   0.000
  Cat_CSO10_1                0.00       0.00       0.00       0.00       0.00       0.00       0.00        0.00     0.00   0.000
  Cat_CSO10_2                0.00       0.00       0.00       0.00       0.00       0.00       0.00        0.00     0.00   0.000
  Cat_CSO10_3                0.00       0.00       0.00       0.00       0.00       0.00       0.00        0.00     0.00   0.000
  Cat_CSO13_1                0.00       0.00       0.00       0.00       0.00       0.00       0.00        0.00     0.00   0.000
  Cat_CSO13_2                0.00       0.00       0.00       0.00       0.00       0.00       0.00        0.00     0.00   0.000
  Cat_CSO13_3                0.00       0.00       0.00       0.00       0.00       0.00       0.00        0.00     0.00   0.000
  Cat_CSO13_4                0.00       0.00       0.00       0.00       0.00       0.00       0.00        0.00     0.00   0.000
  Cat_CSO13_5                0.00       0.00       0.00       0.00       0.00       0.00       0.00        0.00     0.00   0.000
  Cat_CSO16                  0.00       0.00       0.00       0.00       0.00       0.00       0.00        0.00     0.00   0.000
  Cat_CSO19                  0.00       0.00       0.00       0.00       0.00       0.00       0.00        0.00     0.00   0.000
  Cat_CSO21A_1               0.00       0.00       0.00       0.00       0.00       0.00       0.00        0.00     0.00   0.000
  Cat_CSO21A_10              0.00       0.00       0.00       0.00       0.00       0.00       0.00        0.00     0.00   0.000
  Cat_CSO21A_2               0.00       0.00       0.00       0.00       0.00       0.00       0.00        0.00     0.00   0.000
  Cat_CSO21A_3               0.00       0.00       0.00       0.00       0.00       0.00       0.00        0.00     0.00   0.000
  Cat_CSO21A_4               0.00       0.00       0.00       0.00       0.00       0.00       0.00        0.00     0.00   0.000
  Cat_CSO21A_5               0.00       0.00       0.00       0.00       0.00       0.00       0.00        0.00     0.00   0.000
  Cat_CSO21A_6               0.00       0.00       0.00       0.00       0.00       0.00       0.00        0.00     0.00   0.000
  Cat_CSO21A_7               0.00       0.00       0.00       0.00       0.00       0.00       0.00        0.00     0.00   0.000
  Cat_CSO21A_8               0.00       0.00       0.00       0.00       0.00       0.00       0.00        0.00     0.00   0.000
  Cat_CSO21A_9               0.00       0.00       0.00       0.00       0.00       0.00       0.00        0.00     0.00   0.000
  Cat_CSO21D                 0.00       0.00       0.00       0.00       0.00       0.00       0.00        0.00     0.00   0.000
  Cat_CSO21ED_1              0.00       0.00       0.00       0.00       0.00       0.00       0.00        0.00     0.00   0.000
  Cat_CSO21ED_2              0.00       0.00       0.00       0.00       0.00       0.00       0.00        0.00     0.00   0.000
  Cat_CSO21H_1               0.00       0.00       0.00       0.00       0.00       0.00       0.00        0.00     0.00   0.000
  Cat_CSO21H_2               0.00       0.00       0.00       0.00       0.00       0.00       0.00        0.00     0.00   0.000
  Cat_CSO21H_3               0.00       0.00       0.00       0.00       0.00       0.00       0.00        0.00     0.00   0.000
  Cat_CSO22                  0.00       0.00       0.00       0.00       0.00       0.00       0.00        0.00     0.00   0.000
  Cat_CSO23_1                0.00       0.00       0.00       0.00       0.00       0.00       0.00        0.00     0.00   0.000
  Cat_CSO23_2                0.00       0.00       0.00       0.00       0.00       0.00       0.00        0.00     0.00   0.000
  Cat_CSO24                  0.00       0.00       0.00       0.00       0.00       0.00       0.00        0.00     0.00   0.000
  Cat_CSO25_1                0.00       0.00       0.00       0.00       0.00       0.00       0.00        0.00     0.00   0.000
  Cat_CSO25_2                0.00       0.00       0.00       0.00       0.00       0.00       0.00        0.00     0.00   0.000
  Cat_CSO25_3                0.00       0.00       0.00       0.00       0.00       0.00       0.00        0.00     0.00   0.000
  Cat_CSO25_4                0.00       0.00       0.00       0.00       0.00       0.00       0.00        0.00     0.00   0.000
  Cat_CSO25_5                0.00       0.00       0.00       0.00       0.00       0.00       0.00        0.00     0.00   0.000
  Cat_CSO25_6                0.00       0.00       0.00       0.00       0.00       0.00       0.00        0.00     0.00   0.000
  Cat_CSO25_7                0.00       0.00       0.00       0.00       0.00       0.00       0.00        0.00     0.00   0.000
  Cat_CSO31_1                0.00       0.00       0.00       0.00       0.00       0.00       0.00        0.00     0.00   0.000
  Cat_CSO31_2                0.00       0.00       0.00       0.00       0.00       0.00       0.00        0.00     0.00   0.000
  Cat_CSO35_1                0.00       0.00       0.00       0.00       0.00       0.00       0.00        0.00     0.00   0.000
  Cat_CSO33                  0.00       0.00       0.00       0.00       0.00       0.00       0.00        0.00     0.00   0.000
  Cat_CSO34                  0.00       0.00       0.00       0.00       0.00       0.00       0.00        0.00     0.00   0.000
  Cat_CSO36                  0.00       0.00       0.00       0.00       0.00       0.00       0.00        0.00     0.00   0.000
  Cat_CSO38_1                0.00       0.00       0.00       0.00       0.00       0.00       0.00        0.00     0.00   0.000
  Cat_CSO38_2                0.00       0.00       0.00       0.00       0.00       0.00       0.00        0.00     0.00   0.000
  Cat_WWTP_1                 0.00       0.00       0.00       0.00       0.00       0.00       0.00        0.00     0.00   0.000
  Cat_WWTP_2                 0.00       0.00       0.00       0.00       0.00       0.00       0.00        0.00     0.00   0.000
  Cat_WWTP_3                 0.00       0.00       0.00       0.00       0.00       0.00       0.00        0.00     0.00   0.000
  Cat_WWTP_4                 0.00       0.00       0.00       0.00       0.00       0.00       0.00        0.00     0.00   0.000
  Cat_WWTP_5                 0.00       0.00       0.00       0.00       0.00       0.00       0.00        0.00     0.00   0.000
  Cat_WWTP_6                 0.00       0.00       0.00       0.00       0.00       0.00       0.00        0.00     0.00   0.000
  Cat_WWTP_7                 0.00       0.00       0.00       0.00       0.00       0.00       0.00        0.00     0.00   0.000
  Cat_CSO32_1                0.00       0.00       0.00       0.00       0.00       0.00       0.00        0.00     0.00   0.000
  Cat_CSO32_2                0.00       0.00       0.00       0.00       0.00       0.00       0.00        0.00     0.00   0.000
  Cat_CSO35_2                0.00       0.00       0.00       0.00       0.00       0.00       0.00        0.00     0.00   0.000
  
  
  ******************
  Node Depth Summary
  ******************
  
  ---------------------------------------------------------------------------------
                                 Average  Maximum  Maximum  Time of Max    Reported
                                   Depth    Depth      HGL   Occurrence   Max Depth
  Node                 Type         Feet     Feet     Feet  days hr:min        Feet
  ---------------------------------------------------------------------------------
  503                  JUNCTION  -nan(ind)     0.00     5.25     0  00:00        0.00
  517                  JUNCTION  -nan(ind)     0.00    14.50     0  00:00        0.00
  70                   JUNCTION  -nan(ind)     0.00    -2.59     0  00:00        0.00
  71                   JUNCTION  -nan(ind)     0.00    -2.60     0  00:00        0.00
  72                   JUNCTION  -nan(ind)     0.00    -0.92     0  00:00        0.00
  942                  JUNCTION  -nan(ind)     0.00     8.12     0  00:00        0.00
  955                  JUNCTION  -nan(ind)     0.00    17.55     0  00:00        0.00
  Bates                JUNCTION  -nan(ind)     0.00     8.40     0  00:00        0.00
  Bradford             JUNCTION  -nan(ind)     0.00     8.58     0  00:00        0.00
  Bradford-1           JUNCTION  -nan(ind)     0.00     8.91     0  00:00        0.00
  Broadway             JUNCTION  -nan(ind)     0.00    32.60     0  00:00        0.00
  CB-4415              JUNCTION  -nan(ind)     0.00    12.90     0  00:00        0.00
  CDM10                JUNCTION  -nan(ind)     0.00   -16.70     0  00:00        0.00
  CDM11                JUNCTION  -nan(ind)     0.00   -15.42     0  00:00        0.00
  CDM12                JUNCTION  -nan(ind)     0.00   -15.42     0  00:00        0.00
  CDM13                JUNCTION  -nan(ind)     0.00   -15.42     0  00:00        0.00
  CDM14                JUNCTION  -nan(ind)     0.00     0.00     0  00:00        0.00
  CDM15                JUNCTION  -nan(ind)     0.00    -8.40     0  00:00        0.00
  CDM16                JUNCTION  -nan(ind)     0.00    -7.50     0  00:00        0.00
  CDM18                JUNCTION  -nan(ind)     0.00    -7.50     0  00:00        0.00
  CDM19                JUNCTION  -nan(ind)     0.00     0.05     0  00:00        0.00
  CDM20                JUNCTION  -nan(ind)     0.00    -7.80     0  00:00        0.00
  CDM23                JUNCTION  -nan(ind)     0.00     6.03     0  00:00        0.00
  CDM25                JUNCTION  -nan(ind)     0.00     5.50     0  00:00        0.00
  CDM26                JUNCTION  -nan(ind)     0.00     6.25     0  00:00        0.00
  CDM27                JUNCTION  -nan(ind)     0.00   -11.50     0  00:00        0.00
  CDM28                JUNCTION  -nan(ind)     0.00   -11.50     0  00:00        0.00
  CDM29                JUNCTION  -nan(ind)     0.00   -11.50     0  00:00        0.00
  CDM30                JUNCTION  -nan(ind)     0.00   -21.25     0  00:00        0.00
  CDM31                JUNCTION  -nan(ind)     0.00   -21.25     0  00:00        0.00
  CDM32                JUNCTION  -nan(ind)     0.00   -21.25     0  00:00        0.00
  CDM34                JUNCTION  -nan(ind)     0.00    13.63     0  00:00        0.00
  CDM41                JUNCTION  -nan(ind)     0.00     6.64     0  00:00        0.00
  CDM45                JUNCTION  -nan(ind)     0.00     3.17     0  00:00        0.00
  CDM46                JUNCTION  -nan(ind)     0.00    13.60     0  00:00        0.00
  CDM8                 JUNCTION  -nan(ind)     0.00   -16.70     0  00:00        0.00
  CDM9                 JUNCTION  -nan(ind)     0.00   -16.70     0  00:00        0.00
  CDM960               JUNCTION  -nan(ind)     0.00    15.55     0  00:00        0.00
  DMH-6094             JUNCTION  -nan(ind)     0.00    15.00     0  00:00        0.00
  Ferry                JUNCTION  -nan(ind)     0.00     4.45     0  00:00        0.00
  Ferry-1              JUNCTION  -nan(ind)     0.00     4.60     0  00:00        0.00
  FireStation          JUNCTION  -nan(ind)     0.00    10.00     0  00:00        0.00
  Gate_WWTPPS          JUNCTION  -nan(ind)     0.00   -12.38     0  00:00        0.00
  GrovelandPS          JUNCTION  -nan(ind)     0.00    15.00     0  00:00        0.00
  HighStDiv            JUNCTION  -nan(ind)     0.00    25.52     0  00:00        0.00
  LS-24PS              JUNCTION  -nan(ind)     0.00    12.41     0  00:00        0.00
  MarginalPS           JUNCTION  -nan(ind)     0.00     8.00     0  00:00        0.00
  Middlesex            JUNCTION  -nan(ind)     0.00     5.06     0  00:00        0.00
  Middlesex-1          JUNCTION  -nan(ind)     0.00     4.50     0  00:00        0.00
  MidSiph1A            JUNCTION  -nan(ind)     0.00   -15.03     0  00:00        0.00
  MidSiph1B            JUNCTION  -nan(ind)     0.00   -11.00     0  00:00        0.00
  MidSiph2A            JUNCTION  -nan(ind)     0.00   -15.03     0  00:00        0.00
  MidSiph2B            JUNCTION  -nan(ind)     0.00   -11.00     0  00:00        0.00
  NMWS01               JUNCTION  -nan(ind)     0.00     9.77     0  00:00        0.00
  SMain                JUNCTION  -nan(ind)     0.00     6.59     0  00:00        0.00
  SMain-1              JUNCTION  -nan(ind)     0.00     6.55     0  00:00        0.00
  SMH-1368             JUNCTION  -nan(ind)     0.00     6.48     0  00:00        0.00
  SMH-1369             JUNCTION  -nan(ind)     0.00    22.31     0  00:00        0.00
  SMH-1370             JUNCTION  -nan(ind)     0.00    26.03     0  00:00        0.00
  SMH-1371             JUNCTION  -nan(ind)     0.00    28.48     0  00:00        0.00
  SMH-1714             JUNCTION  -nan(ind)     0.00    57.20     0  00:00        0.00
  SMH-1738             JUNCTION  -nan(ind)     0.00    56.70     0  00:00        0.00
  SMH-1947             JUNCTION  -nan(ind)     0.00   116.81     0  00:00        0.00
  SMH-2241             JUNCTION  -nan(ind)     0.00    46.07     0  00:00        0.00
  SMH-2242             JUNCTION  -nan(ind)     0.00    40.80     0  00:00        0.00
  SMH-2245             JUNCTION  -nan(ind)     0.00    34.65     0  00:00        0.00
  SMH-2257             JUNCTION  -nan(ind)     0.00    44.38     0  00:00        0.00
  SMH-2321             JUNCTION  -nan(ind)     0.00    30.50     0  00:00        0.00
  SMH-2328             JUNCTION  -nan(ind)     0.00    27.75     0  00:00        0.00
  SMH-2329             JUNCTION  -nan(ind)     0.00    29.85     0  00:00        0.00
  SMH-2330             JUNCTION  -nan(ind)     0.00    33.60     0  00:00        0.00
  SMH-2331             JUNCTION  -nan(ind)     0.00    51.32     0  00:00        0.00
  SMH-2344             JUNCTION  -nan(ind)     0.00    26.41     0  00:00        0.00
  SMH-2345             JUNCTION  -nan(ind)     0.00    21.51     0  00:00        0.00
  SMH-2346             JUNCTION  -nan(ind)     0.00    22.06     0  00:00        0.00
  SMH-2347             JUNCTION  -nan(ind)     0.00    29.35     0  00:00        0.00
  SMH-2569             JUNCTION  -nan(ind)     0.00    29.95     0  00:00        0.00
  SMH-2775             JUNCTION  -nan(ind)     0.00   111.82     0  00:00        0.00
  SMH-2776             JUNCTION  -nan(ind)     0.00   113.61     0  00:00        0.00
  SMH-2777             JUNCTION  -nan(ind)     0.00   112.80     0  00:00        0.00
  SMH-2778             JUNCTION  -nan(ind)     0.00   114.79     0  00:00        0.00
  SMH-2779             JUNCTION  -nan(ind)     0.00   115.77     0  00:00        0.00
  SMH-2832             JUNCTION  -nan(ind)     0.00    75.32     0  00:00        0.00
  SMH-2872             JUNCTION  -nan(ind)     0.00    38.90     0  00:00        0.00
  SMH-2888             JUNCTION  -nan(ind)     0.00    46.33     0  00:00        0.00
  SMH-2889             JUNCTION  -nan(ind)     0.00    32.61     0  00:00        0.00
  SMH-2933             JUNCTION  -nan(ind)     0.00    40.04     0  00:00        0.00
  SMH-2935             JUNCTION  -nan(ind)     0.00    33.68     0  00:00        0.00
  SMH-2936             JUNCTION  -nan(ind)     0.00    26.71     0  00:00        0.00
  SMH-2937             JUNCTION  -nan(ind)     0.00    25.47     0  00:00        0.00
  SMH-2938             JUNCTION  -nan(ind)     0.00    28.51     0  00:00        0.00
  SMH-2939             JUNCTION  -nan(ind)     0.00    27.56     0  00:00        0.00
  SMH-2972             JUNCTION  -nan(ind)     0.00    23.50     0  00:00        0.00
  SMH-3105             JUNCTION  -nan(ind)     0.00    15.09     0  00:00        0.00
  SMH-3108             JUNCTION  -nan(ind)     0.00    10.45     0  00:00        0.00
  SMH-3115             JUNCTION  -nan(ind)     0.00    27.36     0  00:00        0.00
  SMH-3116             JUNCTION  -nan(ind)     0.00    23.76     0  00:00        0.00
  SMH-3117             JUNCTION  -nan(ind)     0.00    20.16     0  00:00        0.00
  SMH-3175             JUNCTION  -nan(ind)     0.00    41.62     0  00:00        0.00
  SMH-3199             JUNCTION  -nan(ind)     0.00    11.28     0  00:00        0.00
  SMH-3208             JUNCTION  -nan(ind)     0.00     9.26     0  00:00        0.00
  SMH-3243             JUNCTION  -nan(ind)     0.00    29.25     0  00:00        0.00
  SMH-3245             JUNCTION  -nan(ind)     0.00    38.65     0  00:00        0.00
  SMH-3246             JUNCTION  -nan(ind)     0.00    40.05     0  00:00        0.00
  SMH-3247             JUNCTION  -nan(ind)     0.00    18.75     0  00:00        0.00
  SMH-3248             JUNCTION  -nan(ind)     0.00    11.65     0  00:00        0.00
  SMH-3289             JUNCTION  -nan(ind)     0.00    97.45     0  00:00        0.00
  SMH-3290             JUNCTION  -nan(ind)     0.00    74.45     0  00:00        0.00
  SMH-3296             JUNCTION  -nan(ind)     0.00    60.45     0  00:00        0.00
  SMH-3297             JUNCTION  -nan(ind)     0.00    16.45     0  00:00        0.00
  SMH-3384             JUNCTION  -nan(ind)     0.00    79.54     0  00:00        0.00
  SMH-3387             JUNCTION  -nan(ind)     0.00    66.42     0  00:00        0.00
  SMH-3388             JUNCTION  -nan(ind)     0.00    75.60     0  00:00        0.00
  SMH-3390             JUNCTION  -nan(ind)     0.00    53.80     0  00:00        0.00
  SMH-3400             JUNCTION  -nan(ind)     0.00    50.01     0  00:00        0.00
  SMH-3432             JUNCTION  -nan(ind)     0.00   105.13     0  00:00        0.00
  SMH-3433             JUNCTION  -nan(ind)     0.00    93.98     0  00:00        0.00
  SMH-3525             JUNCTION  -nan(ind)     0.00    32.50     0  00:00        0.00
  SMH-3547             JUNCTION  -nan(ind)     0.00    37.26     0  00:00        0.00
  SMH-3548             JUNCTION  -nan(ind)     0.00    37.26     0  00:00        0.00
  SMH-3561             JUNCTION  -nan(ind)     0.00    39.80     0  00:00        0.00
  SMH-3562             JUNCTION  -nan(ind)     0.00    40.82     0  00:00        0.00
  SMH-3566             JUNCTION  -nan(ind)     0.00    34.92     0  00:00        0.00
  SMH-3613             JUNCTION  -nan(ind)     0.00    27.04     0  00:00        0.00
  SMH-3614             JUNCTION  -nan(ind)     0.00    23.10     0  00:00        0.00
  SMH-3615             JUNCTION  -nan(ind)     0.00    30.80     0  00:00        0.00
  SMH-3616             JUNCTION  -nan(ind)     0.00    34.92     0  00:00        0.00
  SMH-3680             JUNCTION  -nan(ind)     0.00    38.31     0  00:00        0.00
  SMH-3689             JUNCTION  -nan(ind)     0.00    30.31     0  00:00        0.00
  SMH-3694             JUNCTION  -nan(ind)     0.00    15.00     0  00:00        0.00
  SMH-3698             JUNCTION  -nan(ind)     0.00    35.00     0  00:00        0.00
  SMH-3720             JUNCTION  -nan(ind)     0.00    33.95     0  00:00        0.00
  SMH-3754             JUNCTION  -nan(ind)     0.00    37.44     0  00:00        0.00
  SMH-3770             JUNCTION  -nan(ind)     0.00    24.35     0  00:00        0.00
  SMH-3775             JUNCTION  -nan(ind)     0.00    32.00     0  00:00        0.00
  CDM960A              JUNCTION  -nan(ind)     0.00    15.55     0  00:00        0.00
  SMH-3820             JUNCTION  -nan(ind)     0.00    56.69     0  00:00        0.00
  SMH-3821             JUNCTION  -nan(ind)     0.00    68.76     0  00:00        0.00
  SMH-4272             JUNCTION  -nan(ind)     0.00    34.85     0  00:00        0.00
  SMH-4274             JUNCTION  -nan(ind)     0.00    27.33     0  00:00        0.00
  SMH-4275             JUNCTION  -nan(ind)     0.00    30.50     0  00:00        0.00
  SMH-4336             JUNCTION  -nan(ind)     0.00    13.53     0  00:00        0.00
  SMH-4337             JUNCTION  -nan(ind)     0.00    13.15     0  00:00        0.00
  SMH-4338             JUNCTION  -nan(ind)     0.00    12.60     0  00:00        0.00
  SMH-5001             JUNCTION  -nan(ind)     0.00   113.29     0  00:00        0.00
  SMH-5002             JUNCTION  -nan(ind)     0.00   112.31     0  00:00        0.00
  SMH-5131             JUNCTION  -nan(ind)     0.00     9.55     0  00:00        0.00
  SMH-5178             JUNCTION  -nan(ind)     0.00    34.60     0  00:00        0.00
  SMH-5481             JUNCTION  -nan(ind)     0.00   118.20     0  00:00        0.00
  SMH-5482             JUNCTION  -nan(ind)     0.00   116.31     0  00:00        0.00
  SMH-5483             JUNCTION  -nan(ind)     0.00   111.25     0  00:00        0.00
  SMH-5484             JUNCTION  -nan(ind)     0.00   114.82     0  00:00        0.00
  SMH-5485             JUNCTION  -nan(ind)     0.00   115.85     0  00:00        0.00
  SMH-5486             JUNCTION  -nan(ind)     0.00   116.35     0  00:00        0.00
  SMH-5487             JUNCTION  -nan(ind)     0.00   116.85     0  00:00        0.00
  SMH-5488             JUNCTION  -nan(ind)     0.00   117.35     0  00:00        0.00
  SMH-5489             JUNCTION  -nan(ind)     0.00   117.77     0  00:00        0.00
  SMH-5506             JUNCTION  -nan(ind)     0.00   115.40     0  00:00        0.00
  SMH-5507             JUNCTION  -nan(ind)     0.00   114.24     0  00:00        0.00
  SMH-5508             JUNCTION  -nan(ind)     0.00   113.81     0  00:00        0.00
  SMH-5602             JUNCTION  -nan(ind)     0.00    38.01     0  00:00        0.00
  SMH-5603             JUNCTION  -nan(ind)     0.00    37.36     0  00:00        0.00
  SMH-5604             JUNCTION  -nan(ind)     0.00    35.08     0  00:00        0.00
  SMH-5605             JUNCTION  -nan(ind)     0.00    36.76     0  00:00        0.00
  SMH-5609             JUNCTION  -nan(ind)     0.00    35.84     0  00:00        0.00
  SMH-5610             JUNCTION  -nan(ind)     0.00    36.25     0  00:00        0.00
  SMH-5611             JUNCTION  -nan(ind)     0.00    36.14     0  00:00        0.00
  SMH-5787             JUNCTION  -nan(ind)     0.00    11.54     0  00:00        0.00
  SMH-5797             JUNCTION  -nan(ind)     0.00    32.25     0  00:00        0.00
  SMH-5798             JUNCTION  -nan(ind)     0.00    18.16     0  00:00        0.00
  SMH-5799             JUNCTION  -nan(ind)     0.00    12.65     0  00:00        0.00
  SMH-5807             JUNCTION  -nan(ind)     0.00    15.37     0  00:00        0.00
  SMH-5808             JUNCTION  -nan(ind)     0.00     8.40     0  00:00        0.00
  SMH-5809             JUNCTION  -nan(ind)     0.00     8.82     0  00:00        0.00
  SMH-5810             JUNCTION  -nan(ind)     0.00     6.81     0  00:00        0.00
  SMH-5811             JUNCTION  -nan(ind)     0.00     1.86     0  00:00        0.00
  SMH-5812             JUNCTION  -nan(ind)     0.00    15.53     0  00:00        0.00
  SMH-5813             JUNCTION  -nan(ind)     0.00    15.91     0  00:00        0.00
  SMH-5814             JUNCTION  -nan(ind)     0.00     3.43     0  00:00        0.00
  SMH-5815             JUNCTION  -nan(ind)     0.00     7.85     0  00:00        0.00
  SMH-5816             JUNCTION  -nan(ind)     0.00     7.61     0  00:00        0.00
  SMH-5817             JUNCTION  -nan(ind)     0.00     7.21     0  00:00        0.00
  SMH-5818             JUNCTION  -nan(ind)     0.00     6.53     0  00:00        0.00
  SMH-5819             JUNCTION  -nan(ind)     0.00     4.05     0  00:00        0.00
  SMH-5820             JUNCTION  -nan(ind)     0.00     4.92     0  00:00        0.00
  SMH-5821             JUNCTION  -nan(ind)     0.00     5.41     0  00:00        0.00
  SMH-5822             JUNCTION  -nan(ind)     0.00     3.67     0  00:00        0.00
  SMH-5823             JUNCTION  -nan(ind)     0.00     3.58     0  00:00        0.00
  SMH-5826             JUNCTION  -nan(ind)     0.00     8.20     0  00:00        0.00
  SMH-5827             JUNCTION  -nan(ind)     0.00    22.00     0  00:00        0.00
  SMH-5828             JUNCTION  -nan(ind)     0.00    14.70     0  00:00        0.00
  SMH-5829             JUNCTION  -nan(ind)     0.00     1.94     0  00:00        0.00
  SMH-5830             JUNCTION  -nan(ind)     0.00    -3.62     0  00:00        0.00
  SMH-5831             JUNCTION  -nan(ind)     0.00     0.25     0  00:00        0.00
  SMH-5832             JUNCTION  -nan(ind)     0.00     0.20     0  00:00        0.00
  SMH-5833             JUNCTION  -nan(ind)     0.00     1.60     0  00:00        0.00
  SMH-5834             JUNCTION  -nan(ind)     0.00    21.63     0  00:00        0.00
  SMH-5835             JUNCTION  -nan(ind)     0.00    21.83     0  00:00        0.00
  SMH-5836             JUNCTION  -nan(ind)     0.00    21.90     0  00:00        0.00
  SMH-5837             JUNCTION  -nan(ind)     0.00    22.05     0  00:00        0.00
  SMH-5838             JUNCTION  -nan(ind)     0.00    22.40     0  00:00        0.00
  SMH-5839             JUNCTION  -nan(ind)     0.00    22.43     0  00:00        0.00
  SMH-5840             JUNCTION  -nan(ind)     0.00    22.46     0  00:00        0.00
  SMH-5841             JUNCTION  -nan(ind)     0.00    22.83     0  00:00        0.00
  SMH-5842             JUNCTION  -nan(ind)     0.00    21.44     0  00:00        0.00
  SMH-5843             JUNCTION  -nan(ind)     0.00    21.15     0  00:00        0.00
  SMH-5844             JUNCTION  -nan(ind)     0.00    20.80     0  00:00        0.00
  SMH-5845             JUNCTION  -nan(ind)     0.00    20.47     0  00:00        0.00
  SMH-5846             JUNCTION  -nan(ind)     0.00    20.27     0  00:00        0.00
  SMH-5847             JUNCTION  -nan(ind)     0.00    20.09     0  00:00        0.00
  SMH-5848             JUNCTION  -nan(ind)     0.00    18.44     0  00:00        0.00
  SMH-5849             JUNCTION  -nan(ind)     0.00    18.83     0  00:00        0.00
  SMH-5850             JUNCTION  -nan(ind)     0.00    19.17     0  00:00        0.00
  SMH-5851             JUNCTION  -nan(ind)     0.00    19.26     0  00:00        0.00
  SMH-5852             JUNCTION  -nan(ind)     0.00    19.52     0  00:00        0.00
  SMH-5853             JUNCTION  -nan(ind)     0.00    19.74     0  00:00        0.00
  SMH-5854             JUNCTION  -nan(ind)     0.00    17.88     0  00:00        0.00
  SMH-5855             JUNCTION  -nan(ind)     0.00    17.52     0  00:00        0.00
  SMH-5856             JUNCTION  -nan(ind)     0.00    17.32     0  00:00        0.00
  SMH-5857             JUNCTION  -nan(ind)     0.00    16.28     0  00:00        0.00
  SMH-5858             JUNCTION  -nan(ind)     0.00    16.38     0  00:00        0.00
  SMH-5859             JUNCTION  -nan(ind)     0.00     9.33     0  00:00        0.00
  SMH-5860             JUNCTION  -nan(ind)     0.00     8.53     0  00:00        0.00
  SMH-5861             JUNCTION  -nan(ind)     0.00    -2.87     0  00:00        0.00
  SMH-5862             JUNCTION  -nan(ind)     0.00    -2.73     0  00:00        0.00
  SMH-5863             JUNCTION  -nan(ind)     0.00    -2.33     0  00:00        0.00
  SMH-5864             JUNCTION  -nan(ind)     0.00    -3.44     0  00:00        0.00
  SMH-5865             JUNCTION  -nan(ind)     0.00    -3.83     0  00:00        0.00
  SMH-5866             JUNCTION  -nan(ind)     0.00    -4.04     0  00:00        0.00
  SMH-5867             JUNCTION  -nan(ind)     0.00    -3.08     0  00:00        0.00
  SMH-5868             JUNCTION  -nan(ind)     0.00    -0.14     0  00:00        0.00
  SMH-5869             JUNCTION  -nan(ind)     0.00     0.34     0  00:00        0.00
  SMH-5870             JUNCTION  -nan(ind)     0.00     1.23     0  00:00        0.00
  SMH-5871             JUNCTION  -nan(ind)     0.00     0.92     0  00:00        0.00
  SMH-5872             JUNCTION  -nan(ind)     0.00     0.56     0  00:00        0.00
  SMH-5873             JUNCTION  -nan(ind)     0.00    14.86     0  00:00        0.00
  SMH-5874             JUNCTION  -nan(ind)     0.00    15.34     0  00:00        0.00
  SMH-5875             JUNCTION  -nan(ind)     0.00    23.40     0  00:00        0.00
  SMH-5881             JUNCTION  -nan(ind)     0.00    -3.20     0  00:00        0.00
  SMH-5885             JUNCTION  -nan(ind)     0.00   -12.20     0  00:00        0.00
  SMH-5886             JUNCTION  -nan(ind)     0.00     8.96     0  00:00        0.00
  SMH-5887             JUNCTION  -nan(ind)     0.00    -2.22     0  00:00        0.00
  SMH-5888             JUNCTION  -nan(ind)     0.00    15.10     0  00:00        0.00
  SMH-5889             JUNCTION  -nan(ind)     0.00    -4.18     0  00:00        0.00
  SMH-5890             JUNCTION  -nan(ind)     0.00    -4.49     0  00:00        0.00
  SMH-5891             JUNCTION  -nan(ind)     0.00     0.09     0  00:00        0.00
  SMH-5892             JUNCTION  -nan(ind)     0.00    -4.35     0  00:00        0.00
  SMH-5893             JUNCTION  -nan(ind)     0.00    -0.37     0  00:00        0.00
  SMH-5932             JUNCTION  -nan(ind)     0.00    12.82     0  00:00        0.00
  SMH-5933             JUNCTION  -nan(ind)     0.00    12.37     0  00:00        0.00
  SMH-5934             JUNCTION  -nan(ind)     0.00    11.86     0  00:00        0.00
  SMH-5935             JUNCTION  -nan(ind)     0.00     9.83     0  00:00        0.00
  SMH-5936             JUNCTION  -nan(ind)     0.00    14.59     0  00:00        0.00
  SMH-5937             JUNCTION  -nan(ind)     0.00    14.20     0  00:00        0.00
  SMH-5938             JUNCTION  -nan(ind)     0.00    13.74     0  00:00        0.00
  SMH-5939             JUNCTION  -nan(ind)     0.00    13.28     0  00:00        0.00
  SMH-5940             JUNCTION  -nan(ind)     0.00    14.60     0  00:00        0.00
  SMH-5941             JUNCTION  -nan(ind)     0.00    14.62     0  00:00        0.00
  SMH-5947             JUNCTION  -nan(ind)     0.00    21.82     0  00:00        0.00
  SMH-5948             JUNCTION  -nan(ind)     0.00    14.82     0  00:00        0.00
  SMH-6019             JUNCTION  -nan(ind)     0.00    11.91     0  00:00        0.00
  SMH-6020             JUNCTION  -nan(ind)     0.00    11.85     0  00:00        0.00
  SMH-6021             JUNCTION  -nan(ind)     0.00     8.50     0  00:00        0.00
  SMH-6024             JUNCTION  -nan(ind)     0.00    25.10     0  00:00        0.00
  SMH-6026             JUNCTION  -nan(ind)     0.00    -1.15     0  00:00        0.00
  SMH-6029             JUNCTION  -nan(ind)     0.00   -12.30     0  00:00        0.00
  SMH-6030             JUNCTION  -nan(ind)     0.00    27.88     0  00:00        0.00
  SMH-6031             JUNCTION  -nan(ind)     0.00    27.31     0  00:00        0.00
  SMH-6033             JUNCTION  -nan(ind)     0.00     4.87     0  00:00        0.00
  SMH-6035             JUNCTION  -nan(ind)     0.00     8.00     0  00:00        0.00
  SMH-6035A            JUNCTION  -nan(ind)     0.00     9.00     0  00:00        0.00
  SMH-6037             JUNCTION  -nan(ind)     0.00     7.51     0  00:00        0.00
  SMH-6038             JUNCTION  -nan(ind)     0.00     7.25     0  00:00        0.00
  SMH-6042             JUNCTION  -nan(ind)     0.00    18.85     0  00:00        0.00
  SMH-6043             JUNCTION  -nan(ind)     0.00    20.57     0  00:00        0.00
  SMH-6044             JUNCTION  -nan(ind)     0.00    19.34     0  00:00        0.00
  SMH-6045             JUNCTION  -nan(ind)     0.00    12.70     0  00:00        0.00
  SMH-6046             JUNCTION  -nan(ind)     0.00     2.07     0  00:00        0.00
  SMH-6047             JUNCTION  -nan(ind)     0.00     3.01     0  00:00        0.00
  SMH-6047A            JUNCTION  -nan(ind)     0.00     3.65     0  00:00        0.00
  SMH-6047B            JUNCTION  -nan(ind)     0.00     0.76     0  00:00        0.00
  SMH-6048             JUNCTION  -nan(ind)     0.00     2.20     0  00:00        0.00
  SMH-6048A            JUNCTION  -nan(ind)     0.00     1.40     0  00:00        0.00
  SMH-6049             JUNCTION  -nan(ind)     0.00     0.57     0  00:00        0.00
  SMH-6050             JUNCTION  -nan(ind)     0.00     2.30     0  00:00        0.00
  SMH-6050A            JUNCTION  -nan(ind)     0.00     2.26     0  00:00        0.00
  SMH-6050AA           JUNCTION  -nan(ind)     0.00     2.20     0  00:00        0.00
  SMH-6050B            JUNCTION  -nan(ind)     0.00     2.20     0  00:00        0.00
  SMH-6050C            JUNCTION  -nan(ind)     0.00     3.25     0  00:00        0.00
  SMH-6051             JUNCTION  -nan(ind)     0.00    -1.50     0  00:00        0.00
  SMH-6051A            JUNCTION  -nan(ind)     0.00    -7.20     0  00:00        0.00
  SMH-6051B            JUNCTION  -nan(ind)     0.00    -7.21     0  00:00        0.00
  SMH-6052             JUNCTION  -nan(ind)     0.00    10.00     0  00:00        0.00
  SMH-6055             JUNCTION  -nan(ind)     0.00    19.36     0  00:00        0.00
  SMH-6057             JUNCTION  -nan(ind)     0.00    22.96     0  00:00        0.00
  SMH-6058             JUNCTION  -nan(ind)     0.00    22.34     0  00:00        0.00
  SMH-6059             JUNCTION  -nan(ind)     0.00    23.58     0  00:00        0.00
  SMH-6060             JUNCTION  -nan(ind)     0.00    23.99     0  00:00        0.00
  SMH-6061             JUNCTION  -nan(ind)     0.00    24.53     0  00:00        0.00
  SMH-6062             JUNCTION  -nan(ind)     0.00    24.29     0  00:00        0.00
  SMH-6063             JUNCTION  -nan(ind)     0.00    25.21     0  00:00        0.00
  SMH-6064             JUNCTION  -nan(ind)     0.00    24.68     0  00:00        0.00
  SMH-6065             JUNCTION  -nan(ind)     0.00    53.65     0  00:00        0.00
  SMH-6066             JUNCTION  -nan(ind)     0.00    39.22     0  00:00        0.00
  SMH-6067             JUNCTION  -nan(ind)     0.00    44.92     0  00:00        0.00
  SMH-6068             JUNCTION  -nan(ind)     0.00    48.85     0  00:00        0.00
  SMH-6069             JUNCTION  -nan(ind)     0.00    51.70     0  00:00        0.00
  SMH-6070             JUNCTION  -nan(ind)     0.00    15.65     0  00:00        0.00
  SMH-6071             JUNCTION  -nan(ind)     0.00    26.57     0  00:00        0.00
  SMH-6072             JUNCTION  -nan(ind)     0.00    14.49     0  00:00        0.00
  SMH-6073             JUNCTION  -nan(ind)     0.00    25.89     0  00:00        0.00
  SMH-6074             JUNCTION  -nan(ind)     0.00    34.77     0  00:00        0.00
  SMH-6075             JUNCTION  -nan(ind)     0.00    27.18     0  00:00        0.00
  SMH-6076             JUNCTION  -nan(ind)     0.00    27.44     0  00:00        0.00
  SMH-6077             JUNCTION  -nan(ind)     0.00    22.45     0  00:00        0.00
  SMH-6078             JUNCTION  -nan(ind)     0.00    23.95     0  00:00        0.00
  SMH-6079             JUNCTION  -nan(ind)     0.00    23.04     0  00:00        0.00
  SMH-6080             JUNCTION  -nan(ind)     0.00    21.94     0  00:00        0.00
  SMH-6119             JUNCTION  -nan(ind)     0.00    27.57     0  00:00        0.00
  SMH-6120             JUNCTION  -nan(ind)     0.00    28.04     0  00:00        0.00
  SMH-6121             JUNCTION  -nan(ind)     0.00    27.13     0  00:00        0.00
  SMH-6122             JUNCTION  -nan(ind)     0.00    21.60     0  00:00        0.00
  SMH-6123             JUNCTION  -nan(ind)     0.00    20.85     0  00:00        0.00
  SMH-6124             JUNCTION  -nan(ind)     0.00    20.64     0  00:00        0.00
  SMH-6125             JUNCTION  -nan(ind)     0.00    20.62     0  00:00        0.00
  SMH-6126             JUNCTION  -nan(ind)     0.00    13.65     0  00:00        0.00
  SMH-6127             JUNCTION  -nan(ind)     0.00    13.01     0  00:00        0.00
  SMH-6128             JUNCTION  -nan(ind)     0.00    13.63     0  00:00        0.00
  SMH-6129             JUNCTION  -nan(ind)     0.00     8.10     0  00:00        0.00
  SMH-6130             JUNCTION  -nan(ind)     0.00     8.97     0  00:00        0.00
  SMH-6131             JUNCTION  -nan(ind)     0.00     9.80     0  00:00        0.00
  SMH-6137             JUNCTION  -nan(ind)     0.00    25.73     0  00:00        0.00
  SMH-6137A            JUNCTION  -nan(ind)     0.00    25.73     0  00:00        0.00
  SMH-6139             JUNCTION  -nan(ind)     0.00    15.81     0  00:00        0.00
  SMH-6140             JUNCTION  -nan(ind)     0.00    31.03     0  00:00        0.00
  SMH-6141             JUNCTION  -nan(ind)     0.00    30.17     0  00:00        0.00
  SMH-6142             JUNCTION  -nan(ind)     0.00    26.91     0  00:00        0.00
  SMH-6143             JUNCTION  -nan(ind)     0.00    28.41     0  00:00        0.00
  SMH-6144             JUNCTION  -nan(ind)     0.00     5.40     0  00:00        0.00
  SMH-6145             JUNCTION  -nan(ind)     0.00    30.40     0  00:00        0.00
  SMH-6146             JUNCTION  -nan(ind)     0.00    23.79     0  00:00        0.00
  SMH-6147             JUNCTION  -nan(ind)     0.00    22.54     0  00:00        0.00
  SMH-6148             JUNCTION  -nan(ind)     0.00    21.67     0  00:00        0.00
  SMH-6149             JUNCTION  -nan(ind)     0.00     7.90     0  00:00        0.00
  SMH-6150             JUNCTION  -nan(ind)     0.00    -4.13     0  00:00        0.00
  SMH-6151             JUNCTION  -nan(ind)     0.00     1.36     0  00:00        0.00
  SMH-6152             JUNCTION  -nan(ind)     0.00     2.02     0  00:00        0.00
  SMH-6153             JUNCTION  -nan(ind)     0.00     2.40     0  00:00        0.00
  SMH-6154             JUNCTION  -nan(ind)     0.00     6.02     0  00:00        0.00
  SMH-6154A            JUNCTION  -nan(ind)     0.00     5.67     0  00:00        0.00
  SMH-6157             JUNCTION  -nan(ind)     0.00     9.86     0  00:00        0.00
  SMH-6161             JUNCTION  -nan(ind)     0.00     8.25     0  00:00        0.00
  SMH-6163             JUNCTION  -nan(ind)     0.00     7.13     0  00:00        0.00
  SMH-6165             JUNCTION  -nan(ind)     0.00     7.45     0  00:00        0.00
  SMH-6173             JUNCTION  -nan(ind)     0.00     5.42     0  00:00        0.00
  SMH-6174             JUNCTION  -nan(ind)     0.00     5.50     0  00:00        0.00
  SMH-6181             JUNCTION  -nan(ind)     0.00    -6.00     0  00:00        0.00
  SMH-6186             JUNCTION  -nan(ind)     0.00    19.48     0  00:00        0.00
  SMH-6187             JUNCTION  -nan(ind)     0.00    12.93     0  00:00        0.00
  SMH-6189             JUNCTION  -nan(ind)     0.00    12.15     0  00:00        0.00
  SMH-6190             JUNCTION  -nan(ind)     0.00    15.01     0  00:00        0.00
  SMH-6190A            JUNCTION  -nan(ind)     0.00    15.75     0  00:00        0.00
  SMH-6193             JUNCTION  -nan(ind)     0.00    11.83     0  00:00        0.00
  SMH-6194             JUNCTION  -nan(ind)     0.00     8.66     0  00:00        0.00
  SMH-6195             JUNCTION  -nan(ind)     0.00     9.28     0  00:00        0.00
  SMH-6196             JUNCTION  -nan(ind)     0.00    11.11     0  00:00        0.00
  SMH-6197             JUNCTION  -nan(ind)     0.00    12.74     0  00:00        0.00
  SMH-6198             JUNCTION  -nan(ind)     0.00    12.43     0  00:00        0.00
  SMH-6199             JUNCTION  -nan(ind)     0.00     4.34     0  00:00        0.00
  SMH-6200             JUNCTION  -nan(ind)     0.00     4.08     0  00:00        0.00
  SMH-6201             JUNCTION  -nan(ind)     0.00     0.21     0  00:00        0.00
  SMH-6202             JUNCTION  -nan(ind)     0.00     0.05     0  00:00        0.00
  SMH-6203             JUNCTION  -nan(ind)     0.00     0.44     0  00:00        0.00
  SMH-6204             JUNCTION  -nan(ind)     0.00    -1.83     0  00:00        0.00
  SMH-6205             JUNCTION  -nan(ind)     0.00    -2.02     0  00:00        0.00
  SMH-6206             JUNCTION  -nan(ind)     0.00    -2.34     0  00:00        0.00
  SMH-6207             JUNCTION  -nan(ind)     0.00    -0.93     0  00:00        0.00
  SMH-6208             JUNCTION  -nan(ind)     0.00    -0.48     0  00:00        0.00
  SMH-6209             JUNCTION  -nan(ind)     0.00    -4.80     0  00:00        0.00
  SMH-6210             JUNCTION  -nan(ind)     0.00     2.97     0  00:00        0.00
  SMH-6211             JUNCTION  -nan(ind)     0.00     3.59     0  00:00        0.00
  SMH-6212             JUNCTION  -nan(ind)     0.00    46.97     0  00:00        0.00
  SMH-6213             JUNCTION  -nan(ind)     0.00    62.80     0  00:00        0.00
  SMH-6214             JUNCTION  -nan(ind)     0.00    74.50     0  00:00        0.00
  SMH-6215             JUNCTION  -nan(ind)     0.00    96.12     0  00:00        0.00
  SMH-6216             JUNCTION  -nan(ind)     0.00    91.36     0  00:00        0.00
  SMH-6217             JUNCTION  -nan(ind)     0.00   101.05     0  00:00        0.00
  SMH-6218             JUNCTION  -nan(ind)     0.00   105.53     0  00:00        0.00
  SMH-6219             JUNCTION  -nan(ind)     0.00     8.30     0  00:00        0.00
  SMH-6220             JUNCTION  -nan(ind)     0.00     4.20     0  00:00        0.00
  SMH-6221             JUNCTION  -nan(ind)     0.00    10.63     0  00:00        0.00
  SMH-6222             JUNCTION  -nan(ind)     0.00    14.17     0  00:00        0.00
  SMH-6223             JUNCTION  -nan(ind)     0.00    13.24     0  00:00        0.00
  SMH-6224             JUNCTION  -nan(ind)     0.00    22.35     0  00:00        0.00
  SMH-6225             JUNCTION  -nan(ind)     0.00    17.45     0  00:00        0.00
  SMH-6226             JUNCTION  -nan(ind)     0.00     6.00     0  00:00        0.00
  SMH-6226-1           JUNCTION  -nan(ind)     0.00     5.50     0  00:00        0.00
  SMH-6227             JUNCTION  -nan(ind)     0.00    23.15     0  00:00        0.00
  SMH-6231             JUNCTION  -nan(ind)     0.00    21.15     0  00:00        0.00
  SMH-6232             JUNCTION  -nan(ind)     0.00   109.64     0  00:00        0.00
  SMH-6233             JUNCTION  -nan(ind)     0.00     5.32     0  00:00        0.00
  SMH-6234             JUNCTION  -nan(ind)     0.00    11.56     0  00:00        0.00
  SMH-6235             JUNCTION  -nan(ind)     0.00    -0.18     0  00:00        0.00
  SMH-6236             JUNCTION  -nan(ind)     0.00     5.11     0  00:00        0.00
  SMH-6237             JUNCTION  -nan(ind)     0.00     4.78     0  00:00        0.00
  SMH-6238             JUNCTION  -nan(ind)     0.00     4.62     0  00:00        0.00
  SMH-6239             JUNCTION  -nan(ind)     0.00     2.65     0  00:00        0.00
  SMH-6240             JUNCTION  -nan(ind)     0.00     3.04     0  00:00        0.00
  SMH-6241             JUNCTION  -nan(ind)     0.00     3.39     0  00:00        0.00
  SMH-6242             JUNCTION  -nan(ind)     0.00     3.73     0  00:00        0.00
  SMH-6243             JUNCTION  -nan(ind)     0.00     1.35     0  00:00        0.00
  SMH-6244             JUNCTION  -nan(ind)     0.00     0.65     0  00:00        0.00
  SMH-6245             JUNCTION  -nan(ind)     0.00     1.76     0  00:00        0.00
  SMH-6246             JUNCTION  -nan(ind)     0.00    -3.57     0  00:00        0.00
  SMH-6247             JUNCTION  -nan(ind)     0.00    16.45     0  00:00        0.00
  SMH-6248             JUNCTION  -nan(ind)     0.00     6.05     0  00:00        0.00
  SMH-6249             JUNCTION  -nan(ind)     0.00     5.65     0  00:00        0.00
  SMH-6250             JUNCTION  -nan(ind)     0.00     6.45     0  00:00        0.00
  SMH-6251             JUNCTION  -nan(ind)     0.00     6.40     0  00:00        0.00
  SMH-6252             JUNCTION  -nan(ind)     0.00     7.96     0  00:00        0.00
  SMH-6253             JUNCTION  -nan(ind)     0.00    14.55     0  00:00        0.00
  SMH-6254             JUNCTION  -nan(ind)     0.00    13.45     0  00:00        0.00
  SMH-6255             JUNCTION  -nan(ind)     0.00    11.45     0  00:00        0.00
  SMH-6256             JUNCTION  -nan(ind)     0.00    15.55     0  00:00        0.00
  SMH-6257             JUNCTION  -nan(ind)     0.00     6.47     0  00:00        0.00
  SMH-6258             JUNCTION  -nan(ind)     0.00     7.90     0  00:00        0.00
  SMH-6259             JUNCTION  -nan(ind)     0.00    99.40     0  00:00        0.00
  SMH-6260             JUNCTION  -nan(ind)     0.00    38.10     0  00:00        0.00
  SMH-6261             JUNCTION  -nan(ind)     0.00    38.66     0  00:00        0.00
  SMH-6262             JUNCTION  -nan(ind)     0.00     4.91     0  00:00        0.00
  SMH-6263             JUNCTION  -nan(ind)     0.00     7.09     0  00:00        0.00
  SMH-6264             JUNCTION  -nan(ind)     0.00    26.05     0  00:00        0.00
  SMH-6265             JUNCTION  -nan(ind)     0.00    25.99     0  00:00        0.00
  SMH-6269             JUNCTION  -nan(ind)     0.00    12.90     0  00:00        0.00
  SMH-6270             JUNCTION  -nan(ind)     0.00    17.95     0  00:00        0.00
  SMH-6272             JUNCTION  -nan(ind)     0.00    27.32     0  00:00        0.00
  SMH-6273             JUNCTION  -nan(ind)     0.00    24.72     0  00:00        0.00
  SMH-6274             JUNCTION  -nan(ind)     0.00    20.45     0  00:00        0.00
  SMH-6276             JUNCTION  -nan(ind)     0.00    25.58     0  00:00        0.00
  SMH-6277             JUNCTION  -nan(ind)     0.00    25.00     0  00:00        0.00
  SMH-6279             JUNCTION  -nan(ind)     0.00     0.06     0  00:00        0.00
  SMH-6279A            JUNCTION  -nan(ind)     0.00     1.09     0  00:00        0.00
  SMH-6281             JUNCTION  -nan(ind)     0.00    19.34     0  00:00        0.00
  SMH-6282             JUNCTION  -nan(ind)     0.00    15.00     0  00:00        0.00
  SMH-6283             JUNCTION  -nan(ind)     0.00     7.89     0  00:00        0.00
  SMH-6288             JUNCTION  -nan(ind)     0.00    -3.10     0  00:00        0.00
  SMH-6289             JUNCTION  -nan(ind)     0.00    20.71     0  00:00        0.00
  SMH-6290             JUNCTION  -nan(ind)     0.00    20.12     0  00:00        0.00
  SMH-6291             JUNCTION  -nan(ind)     0.00     1.97     0  00:00        0.00
  SMH-6292             JUNCTION  -nan(ind)     0.00     1.57     0  00:00        0.00
  SMH-6293             JUNCTION  -nan(ind)     0.00    23.18     0  00:00        0.00
  SMH-6294             JUNCTION  -nan(ind)     0.00    10.81     0  00:00        0.00
  SMH-6295             JUNCTION  -nan(ind)     0.00    19.37     0  00:00        0.00
  SMH-6296             JUNCTION  -nan(ind)     0.00    17.03     0  00:00        0.00
  SMH-6302             JUNCTION  -nan(ind)     0.00    10.98     0  00:00        0.00
  SMH-6302A            JUNCTION  -nan(ind)     0.00    10.20     0  00:00        0.00
  SMH-6302B            JUNCTION  -nan(ind)     0.00    11.28     0  00:00        0.00
  SMH-6303             JUNCTION  -nan(ind)     0.00    11.79     0  00:00        0.00
  SMH-6304             JUNCTION  -nan(ind)     0.00    28.91     0  00:00        0.00
  SMH-6305             JUNCTION  -nan(ind)     0.00    29.60     0  00:00        0.00
  SMH-6306             JUNCTION  -nan(ind)     0.00    30.16     0  00:00        0.00
  SMH-6307             JUNCTION  -nan(ind)     0.00    30.49     0  00:00        0.00
  SMH-6308             JUNCTION  -nan(ind)     0.00    30.87     0  00:00        0.00
  SMH-6309             JUNCTION  -nan(ind)     0.00    31.47     0  00:00        0.00
  SMH-6310             JUNCTION  -nan(ind)     0.00    32.14     0  00:00        0.00
  SMH-6311             JUNCTION  -nan(ind)     0.00    32.85     0  00:00        0.00
  SMH-6312             JUNCTION  -nan(ind)     0.00    33.47     0  00:00        0.00
  SMH-6313             JUNCTION  -nan(ind)     0.00    34.74     0  00:00        0.00
  SMH-6314             JUNCTION  -nan(ind)     0.00    21.91     0  00:00        0.00
  SMH-6315             JUNCTION  -nan(ind)     0.00    19.15     0  00:00        0.00
  SMH-6316             JUNCTION  -nan(ind)     0.00    19.94     0  00:00        0.00
  SMH-6317             JUNCTION  -nan(ind)     0.00    20.10     0  00:00        0.00
  SMH-6318             JUNCTION  -nan(ind)     0.00    84.90     0  00:00        0.00
  SMH-6319             JUNCTION  -nan(ind)     0.00    24.16     0  00:00        0.00
  SMH-6320             JUNCTION  -nan(ind)     0.00    16.65     0  00:00        0.00
  SMH-6321             JUNCTION  -nan(ind)     0.00    20.10     0  00:00        0.00
  SMH-6322             JUNCTION  -nan(ind)     0.00    18.25     0  00:00        0.00
  SMH-6323             JUNCTION  -nan(ind)     0.00     5.42     0  00:00        0.00
  SMH-6324             JUNCTION  -nan(ind)     0.00     4.78     0  00:00        0.00
  SMH-6325             JUNCTION  -nan(ind)     0.00    13.98     0  00:00        0.00
  SMH-6326             JUNCTION  -nan(ind)     0.00    16.62     0  00:00        0.00
  SMH-6429             JUNCTION  -nan(ind)     0.00    10.34     0  00:00        0.00
  SMH-6431             JUNCTION  -nan(ind)     0.00    10.49     0  00:00        0.00
  SMH-6432             JUNCTION  -nan(ind)     0.00    10.64     0  00:00        0.00
  SMH-6433             JUNCTION  -nan(ind)     0.00    11.35     0  00:00        0.00
  SMH-6434             JUNCTION  -nan(ind)     0.00    10.85     0  00:00        0.00
  SProspect            JUNCTION  -nan(ind)     0.00    10.48     0  00:00        0.00
  SProspect-1          JUNCTION  -nan(ind)     0.00     9.51     0  00:00        0.00
  WWTPFM               JUNCTION  -nan(ind)     0.00    20.00     0  00:00        0.00
  WWTPPS               JUNCTION  -nan(ind)     0.00     8.00     0  00:00        0.00
  1                    JUNCTION  -nan(ind)     0.00   -12.38     0  00:00        0.00
  LowSiphDS            JUNCTION  -nan(ind)     0.00   -12.20     0  00:00        0.00
  J1                   JUNCTION  -nan(ind)     0.00     4.45     0  00:00        0.00
  WinterHaleGate_DS    JUNCTION  -nan(ind)     0.00    15.01     0  00:00        0.00
  HighGate_DS          JUNCTION  -nan(ind)     0.00    27.32     0  00:00        0.00
  BroadwayGate_DS      JUNCTION  -nan(ind)     0.00    34.77     0  00:00        0.00
  WinterGate_DS        JUNCTION  -nan(ind)     0.00    25.73     0  00:00        0.00
  2                    JUNCTION  -nan(ind)     0.00    25.00     0  00:00        0.00
  3                    JUNCTION  -nan(ind)     0.00     2.30     0  00:00        0.00
  4                    JUNCTION  -nan(ind)     0.00     0.76     0  00:00        0.00
  001                  OUTFALL   -nan(ind)     0.00     5.90     0  00:00        0.00
  010                  OUTFALL   -nan(ind)     0.00     4.33     0  00:00        0.00
  013                  OUTFALL   -nan(ind)     0.00    -1.00     0  00:00        0.00
  016                  OUTFALL   -nan(ind)     0.00     8.18     0  00:00        0.00
  019                  OUTFALL   -nan(ind)     0.00    14.00     0  00:00        0.00
  021H                 OUTFALL   -nan(ind)     0.00     9.36     0  00:00        0.00
  022                  OUTFALL   -nan(ind)     0.00    14.40     0  00:00        0.00
  023                  OUTFALL   -nan(ind)     0.00     2.70     0  00:00        0.00
  024                  OUTFALL   -nan(ind)     0.00     2.00     0  00:00        0.00
  025                  OUTFALL   -nan(ind)     0.00     5.66     0  00:00        0.00
  031                  OUTFALL   -nan(ind)     0.00     7.72     0  00:00        0.00
  032                  OUTFALL   -nan(ind)     0.00     5.87     0  00:00        0.00
  033                  OUTFALL   -nan(ind)     0.00     5.85     0  00:00        0.00
  035                  OUTFALL   -nan(ind)     0.00     4.30     0  00:00        0.00
  036                  OUTFALL   -nan(ind)     0.00     2.38     0  00:00        0.00
  034                  OUTFALL   -nan(ind)     0.00     4.19     0  00:00        0.00
  038                  OUTFALL   -nan(ind)     0.00     5.85     0  00:00        0.00
  OFCDM1               OUTFALL   -nan(ind)     0.00    14.40     0  00:00        0.00
  021D                 OUTFALL   -nan(ind)     0.00     4.78     0  00:00        0.00
  021E                 OUTFALL   -nan(ind)     0.00     7.40     0  00:00        0.00
  021A                 OUTFALL   -nan(ind)     0.00     0.55     0  00:00        0.00
  WWTP-1               OUTFALL   -nan(ind)     0.00    19.00     0  00:00        0.00
  MarginalPS_WW        STORAGE   -nan(ind)     0.00     1.50     0  00:00        0.00
  WWTPPSwetwell        STORAGE   -nan(ind)     0.00   -21.50     0  00:00        0.00
  
  
  *******************
  Node Inflow Summary
  *******************
  
  -------------------------------------------------------------------------------------------------
                                  Maximum  Maximum                  Lateral       Total        Flow
                                  Lateral    Total  Time of Max      Inflow      Inflow     Balance
                                   Inflow   Inflow   Occurrence      Volume      Volume       Error
  Node                 Type           CFS      CFS  days hr:min    10^6 gal    10^6 gal     Percent
  -------------------------------------------------------------------------------------------------
  503                  JUNCTION      0.00     0.00     0  00:00           0           0       0.000 gal
  517                  JUNCTION      0.00     0.00     0  00:00           0           0       0.000 gal
  70                   JUNCTION      0.00     0.00     0  00:00           0           0       0.000 gal
  71                   JUNCTION      0.00     0.00     0  00:00           0           0       0.000 gal
  72                   JUNCTION      0.00     0.00     0  00:00           0           0       0.000 gal
  942                  JUNCTION      0.00     0.00     0  00:00           0           0       0.000 gal
  955                  JUNCTION      0.00     0.00     0  00:00           0           0       0.000 gal
  Bates                JUNCTION      0.00     0.00     0  00:00           0           0       0.000 gal
  Bradford             JUNCTION      0.00     0.00     0  00:00           0           0       0.000 gal
  Bradford-1           JUNCTION      0.00     0.00     0  00:00           0           0       0.000 gal
  Broadway             JUNCTION      0.00     0.00     0  00:00           0           0       0.000 gal
  CB-4415              JUNCTION      0.00     0.00     0  00:00           0           0       0.000 gal
  CDM10                JUNCTION      0.00     0.00     0  00:00           0           0       0.000 gal
  CDM11                JUNCTION      0.00     0.00     0  00:00           0           0       0.000 gal
  CDM12                JUNCTION      0.00     0.00     0  00:00           0           0       0.000 gal
  CDM13                JUNCTION      0.00     0.00     0  00:00           0           0       0.000 gal
  CDM14                JUNCTION      0.00     0.00     0  00:00           0           0       0.000 gal
  CDM15                JUNCTION      0.00     0.00     0  00:00           0           0       0.000 gal
  CDM16                JUNCTION      0.00     0.00     0  00:00           0           0       0.000 gal
  CDM18                JUNCTION      0.00     0.00     0  00:00           0           0       0.000 gal
  CDM19                JUNCTION      0.00     0.00     0  00:00           0           0       0.000 gal
  CDM20                JUNCTION      0.00     0.00     0  00:00           0           0       0.000 gal
  CDM23                JUNCTION      0.00     0.00     0  00:00           0           0       0.000 gal
  CDM25                JUNCTION      0.00     0.00     0  00:00           0           0       0.000 gal
  CDM26                JUNCTION      0.00     0.00     0  00:00           0           0       0.000 gal
  CDM27                JUNCTION      0.00     0.00     0  00:00           0           0       0.000 gal
  CDM28                JUNCTION      0.00     0.00     0  00:00           0           0       0.000 gal
  CDM29                JUNCTION      0.00     0.00     0  00:00           0           0       0.000 gal
  CDM30                JUNCTION      0.00     0.00     0  00:00           0           0       0.000 gal
  CDM31                JUNCTION      0.00     0.00     0  00:00           0           0       0.000 gal
  CDM32                JUNCTION      0.00     0.00     0  00:00           0           0       0.000 gal
  CDM34                JUNCTION      0.00     0.00     0  00:00           0           0       0.000 gal
  CDM41                JUNCTION      0.00     0.00     0  00:00           0           0       0.000 gal
  CDM45                JUNCTION      0.00     0.00     0  00:00           0           0       0.000 gal
  CDM46                JUNCTION      0.00     0.00     0  00:00           0           0       0.000 gal
  CDM8                 JUNCTION      0.00     0.00     0  00:00           0           0       0.000 gal
  CDM9                 JUNCTION      0.00     0.00     0  00:00           0           0       0.000 gal
  CDM960               JUNCTION      0.00     0.00     0  00:00           0           0       0.000 gal
  DMH-6094             JUNCTION      0.00     0.00     0  00:00           0           0       0.000 gal
  Ferry                JUNCTION      0.00     0.00     0  00:00           0           0       0.000 gal
  Ferry-1              JUNCTION      0.00     0.00     0  00:00           0           0       0.000 gal
  FireStation          JUNCTION      0.00     0.00     0  00:00           0           0       0.000 gal
  Gate_WWTPPS          JUNCTION      0.00     0.00     0  00:00           0           0       0.000 gal
  GrovelandPS          JUNCTION      0.00     0.00     0  00:00           0           0       0.000 gal
  HighStDiv            JUNCTION      0.00     0.00     0  00:00           0           0       0.000 gal
  LS-24PS              JUNCTION      0.00     0.00     0  00:00           0           0       0.000 gal
  MarginalPS           JUNCTION      0.00     0.00     0  00:00           0           0       0.000 gal
  Middlesex            JUNCTION      0.00     0.00     0  00:00           0           0       0.000 gal
  Middlesex-1          JUNCTION      0.00     0.00     0  00:00           0           0       0.000 gal
  MidSiph1A            JUNCTION      0.00     0.00     0  00:00           0           0       0.000 gal
  MidSiph1B            JUNCTION      0.00     0.00     0  00:00           0           0       0.000 gal
  MidSiph2A            JUNCTION      0.00     0.00     0  00:00           0           0       0.000 gal
  MidSiph2B            JUNCTION      0.00     0.00     0  00:00           0           0       0.000 gal
  NMWS01               JUNCTION      0.00     0.00     0  00:00           0           0       0.000 gal
  SMain                JUNCTION      0.00     0.00     0  00:00           0           0       0.000 gal
  SMain-1              JUNCTION      0.00     0.00     0  00:00           0           0       0.000 gal
  SMH-1368             JUNCTION      0.00     0.00     0  00:00           0           0       0.000 gal
  SMH-1369             JUNCTION      0.00     0.00     0  00:00           0           0       0.000 gal
  SMH-1370             JUNCTION      0.00     0.00     0  00:00           0           0       0.000 gal
  SMH-1371             JUNCTION      0.00     0.00     0  00:00           0           0       0.000 gal
  SMH-1714             JUNCTION      0.00     0.00     0  00:00           0           0       0.000 gal
  SMH-1738             JUNCTION      0.00     0.00     0  00:00           0           0       0.000 gal
  SMH-1947             JUNCTION      0.00     0.00     0  00:00           0           0       0.000 gal
  SMH-2241             JUNCTION      0.00     0.00     0  00:00           0           0       0.000 gal
  SMH-2242             JUNCTION      0.00     0.00     0  00:00           0           0       0.000 gal
  SMH-2245             JUNCTION      0.00     0.00     0  00:00           0           0       0.000 gal
  SMH-2257             JUNCTION      0.00     0.00     0  00:00           0           0       0.000 gal
  SMH-2321             JUNCTION      0.00     0.00     0  00:00           0           0       0.000 gal
  SMH-2328             JUNCTION      0.00     0.00     0  00:00           0           0       0.000 gal
  SMH-2329             JUNCTION      0.00     0.00     0  00:00           0           0       0.000 gal
  SMH-2330             JUNCTION      0.00     0.00     0  00:00           0           0       0.000 gal
  SMH-2331             JUNCTION      0.00     0.00     0  00:00           0           0       0.000 gal
  SMH-2344             JUNCTION      0.00     0.00     0  00:00           0           0       0.000 gal
  SMH-2345             JUNCTION      0.00     0.00     0  00:00           0           0       0.000 gal
  SMH-2346             JUNCTION      0.00     0.00     0  00:00           0           0       0.000 gal
  SMH-2347             JUNCTION      0.00     0.00     0  00:00           0           0       0.000 gal
  SMH-2569             JUNCTION      0.00     0.00     0  00:00           0           0       0.000 gal
  SMH-2775             JUNCTION      0.00     0.00     0  00:00           0           0       0.000 gal
  SMH-2776             JUNCTION      0.00     0.00     0  00:00           0           0       0.000 gal
  SMH-2777             JUNCTION      0.00     0.00     0  00:00           0           0       0.000 gal
  SMH-2778             JUNCTION      0.00     0.00     0  00:00           0           0       0.000 gal
  SMH-2779             JUNCTION      0.00     0.00     0  00:00           0           0       0.000 gal
  SMH-2832             JUNCTION      0.00     0.00     0  00:00           0           0       0.000 gal
  SMH-2872             JUNCTION      0.00     0.00     0  00:00           0           0       0.000 gal
  SMH-2888             JUNCTION      0.00     0.00     0  00:00           0           0       0.000 gal
  SMH-2889             JUNCTION      0.00     0.00     0  00:00           0           0       0.000 gal
  SMH-2933             JUNCTION      0.00     0.00     0  00:00           0           0       0.000 gal
  SMH-2935             JUNCTION      0.00     0.00     0  00:00           0           0       0.000 gal
  SMH-2936             JUNCTION      0.00     0.00     0  00:00           0           0       0.000 gal
  SMH-2937             JUNCTION      0.00     0.00     0  00:00           0           0       0.000 gal
  SMH-2938             JUNCTION      0.00     0.00     0  00:00           0           0       0.000 gal
  SMH-2939             JUNCTION      0.00     0.00     0  00:00           0           0       0.000 gal
  SMH-2972             JUNCTION      0.00     0.00     0  00:00           0           0       0.000 gal
  SMH-3105             JUNCTION      0.00     0.00     0  00:00           0           0       0.000 gal
  SMH-3108             JUNCTION      0.00     0.00     0  00:00           0           0       0.000 gal
  SMH-3115             JUNCTION      0.00     0.00     0  00:00           0           0       0.000 gal
  SMH-3116             JUNCTION      0.00     0.00     0  00:00           0           0       0.000 gal
  SMH-3117             JUNCTION      0.00     0.00     0  00:00           0           0       0.000 gal
  SMH-3175             JUNCTION      0.00     0.00     0  00:00           0           0       0.000 gal
  SMH-3199             JUNCTION      0.00     0.00     0  00:00           0           0       0.000 gal
  SMH-3208             JUNCTION      0.00     0.00     0  00:00           0           0       0.000 gal
  SMH-3243             JUNCTION      0.00     0.00     0  00:00           0           0       0.000 gal
  SMH-3245             JUNCTION      0.00     0.00     0  00:00           0           0       0.000 gal
  SMH-3246             JUNCTION      0.00     0.00     0  00:00           0           0       0.000 gal
  SMH-3247             JUNCTION      0.00     0.00     0  00:00           0           0       0.000 gal
  SMH-3248             JUNCTION      0.00     0.00     0  00:00           0           0       0.000 gal
  SMH-3289             JUNCTION      0.00     0.00     0  00:00           0           0       0.000 gal
  SMH-3290             JUNCTION      0.00     0.00     0  00:00           0           0       0.000 gal
  SMH-3296             JUNCTION      0.00     0.00     0  00:00           0           0       0.000 gal
  SMH-3297             JUNCTION      0.00     0.00     0  00:00           0           0       0.000 gal
  SMH-3384             JUNCTION      0.00     0.00     0  00:00           0           0       0.000 gal
  SMH-3387             JUNCTION      0.00     0.00     0  00:00           0           0       0.000 gal
  SMH-3388             JUNCTION      0.00     0.00     0  00:00           0           0       0.000 gal
  SMH-3390             JUNCTION      0.00     0.00     0  00:00           0           0       0.000 gal
  SMH-3400             JUNCTION      0.00     0.00     0  00:00           0           0       0.000 gal
  SMH-3432             JUNCTION      0.00     0.00     0  00:00           0           0       0.000 gal
  SMH-3433             JUNCTION      0.00     0.00     0  00:00           0           0       0.000 gal
  SMH-3525             JUNCTION      0.00     0.00     0  00:00           0           0       0.000 gal
  SMH-3547             JUNCTION      0.00     0.00     0  00:00           0           0       0.000 gal
  SMH-3548             JUNCTION      0.00     0.00     0  00:00           0           0       0.000 gal
  SMH-3561             JUNCTION      0.00     0.00     0  00:00           0           0       0.000 gal
  SMH-3562             JUNCTION      0.00     0.00     0  00:00           0           0       0.000 gal
  SMH-3566             JUNCTION      0.00     0.00     0  00:00           0           0       0.000 gal
  SMH-3613             JUNCTION      0.00     0.00     0  00:00           0           0       0.000 gal
  SMH-3614             JUNCTION      0.00     0.00     0  00:00           0           0       0.000 gal
  SMH-3615             JUNCTION      0.00     0.00     0  00:00           0           0       0.000 gal
  SMH-3616             JUNCTION      0.00     0.00     0  00:00           0           0       0.000 gal
  SMH-3680             JUNCTION      0.00     0.00     0  00:00           0           0       0.000 gal
  SMH-3689             JUNCTION      0.00     0.00     0  00:00           0           0       0.000 gal
  SMH-3694             JUNCTION      0.00     0.00     0  00:00           0           0       0.000 gal
  SMH-3698             JUNCTION      0.00     0.00     0  00:00           0           0       0.000 gal
  SMH-3720             JUNCTION      0.00     0.00     0  00:00           0           0       0.000 gal
  SMH-3754             JUNCTION      0.00     0.00     0  00:00           0           0       0.000 gal
  SMH-3770             JUNCTION      0.00     0.00     0  00:00           0           0       0.000 gal
  SMH-3775             JUNCTION      0.00     0.00     0  00:00           0           0       0.000 gal
  CDM960A              JUNCTION      0.00     0.00     0  00:00           0           0       0.000 gal
  SMH-3820             JUNCTION      0.00     0.00     0  00:00           0           0       0.000 gal
  SMH-3821             JUNCTION      0.00     0.00     0  00:00           0           0       0.000 gal
  SMH-4272             JUNCTION      0.00     0.00     0  00:00           0           0       0.000 gal
  SMH-4274             JUNCTION      0.00     0.00     0  00:00           0           0       0.000 gal
  SMH-4275             JUNCTION      0.00     0.00     0  00:00           0           0       0.000 gal
  SMH-4336             JUNCTION      0.00     0.00     0  00:00           0           0       0.000 gal
  SMH-4337             JUNCTION      0.00     0.00     0  00:00           0           0       0.000 gal
  SMH-4338             JUNCTION      0.00     0.00     0  00:00           0           0       0.000 gal
  SMH-5001             JUNCTION      0.00     0.00     0  00:00           0           0       0.000 gal
  SMH-5002             JUNCTION      0.00     0.00     0  00:00           0           0       0.000 gal
  SMH-5131             JUNCTION      0.00     0.00     0  00:00           0           0       0.000 gal
  SMH-5178             JUNCTION      0.00     0.00     0  00:00           0           0       0.000 gal
  SMH-5481             JUNCTION      0.00     0.00     0  00:00           0           0       0.000 gal
  SMH-5482             JUNCTION      0.00     0.00     0  00:00           0           0       0.000 gal
  SMH-5483             JUNCTION      0.00     0.00     0  00:00           0           0       0.000 gal
  SMH-5484             JUNCTION      0.00     0.00     0  00:00           0           0       0.000 gal
  SMH-5485             JUNCTION      0.00     0.00     0  00:00           0           0       0.000 gal
  SMH-5486             JUNCTION      0.00     0.00     0  00:00           0           0       0.000 gal
  SMH-5487             JUNCTION      0.00     0.00     0  00:00           0           0       0.000 gal
  SMH-5488             JUNCTION      0.00     0.00     0  00:00           0           0       0.000 gal
  SMH-5489             JUNCTION      0.00     0.00     0  00:00           0           0       0.000 gal
  SMH-5506             JUNCTION      0.00     0.00     0  00:00           0           0       0.000 gal
  SMH-5507             JUNCTION      0.00     0.00     0  00:00           0           0       0.000 gal
  SMH-5508             JUNCTION      0.00     0.00     0  00:00           0           0       0.000 gal
  SMH-5602             JUNCTION      0.00     0.00     0  00:00           0           0       0.000 gal
  SMH-5603             JUNCTION      0.00     0.00     0  00:00           0           0       0.000 gal
  SMH-5604             JUNCTION      0.00     0.00     0  00:00           0           0       0.000 gal
  SMH-5605             JUNCTION      0.00     0.00     0  00:00           0           0       0.000 gal
  SMH-5609             JUNCTION      0.00     0.00     0  00:00           0           0       0.000 gal
  SMH-5610             JUNCTION      0.00     0.00     0  00:00           0           0       0.000 gal
  SMH-5611             JUNCTION      0.00     0.00     0  00:00           0           0       0.000 gal
  SMH-5787             JUNCTION      0.00     0.00     0  00:00           0           0       0.000 gal
  SMH-5797             JUNCTION      0.00     0.00     0  00:00           0           0       0.000 gal
  SMH-5798             JUNCTION      0.00     0.00     0  00:00           0           0       0.000 gal
  SMH-5799             JUNCTION      0.00     0.00     0  00:00           0           0       0.000 gal
  SMH-5807             JUNCTION      0.00     0.00     0  00:00           0           0       0.000 gal
  SMH-5808             JUNCTION      0.00     0.00     0  00:00           0           0       0.000 gal
  SMH-5809             JUNCTION      0.00     0.00     0  00:00           0           0       0.000 gal
  SMH-5810             JUNCTION      0.00     0.00     0  00:00           0           0       0.000 gal
  SMH-5811             JUNCTION      0.00     0.00     0  00:00           0           0       0.000 gal
  SMH-5812             JUNCTION      0.00     0.00     0  00:00           0           0       0.000 gal
  SMH-5813             JUNCTION      0.00     0.00     0  00:00           0           0       0.000 gal
  SMH-5814             JUNCTION      0.00     0.00     0  00:00           0           0       0.000 gal
  SMH-5815             JUNCTION      0.00     0.00     0  00:00           0           0       0.000 gal
  SMH-5816             JUNCTION      0.00     0.00     0  00:00           0           0       0.000 gal
  SMH-5817             JUNCTION      0.00     0.00     0  00:00           0           0       0.000 gal
  SMH-5818             JUNCTION      0.00     0.00     0  00:00           0           0       0.000 gal
  SMH-5819             JUNCTION      0.00     0.00     0  00:00           0           0       0.000 gal
  SMH-5820             JUNCTION      0.00     0.00     0  00:00           0           0       0.000 gal
  SMH-5821             JUNCTION      0.00     0.00     0  00:00           0           0       0.000 gal
  SMH-5822             JUNCTION      0.00     0.00     0  00:00           0           0       0.000 gal
  SMH-5823             JUNCTION      0.00     0.00     0  00:00           0           0       0.000 gal
  SMH-5826             JUNCTION      0.00     0.00     0  00:00           0           0       0.000 gal
  SMH-5827             JUNCTION      0.00     0.00     0  00:00           0           0       0.000 gal
  SMH-5828             JUNCTION      0.00     0.00     0  00:00           0           0       0.000 gal
  SMH-5829             JUNCTION      0.00     0.00     0  00:00           0           0       0.000 gal
  SMH-5830             JUNCTION      0.00     0.00     0  00:00           0           0       0.000 gal
  SMH-5831             JUNCTION      0.00     0.00     0  00:00           0           0       0.000 gal
  SMH-5832             JUNCTION      0.00     0.00     0  00:00           0           0       0.000 gal
  SMH-5833             JUNCTION      0.00     0.00     0  00:00           0           0       0.000 gal
  SMH-5834             JUNCTION      0.00     0.00     0  00:00           0           0       0.000 gal
  SMH-5835             JUNCTION      0.00     0.00     0  00:00           0           0       0.000 gal
  SMH-5836             JUNCTION      0.00     0.00     0  00:00           0           0       0.000 gal
  SMH-5837             JUNCTION      0.00     0.00     0  00:00           0           0       0.000 gal
  SMH-5838             JUNCTION      0.00     0.00     0  00:00           0           0       0.000 gal
  SMH-5839             JUNCTION      0.00     0.00     0  00:00           0           0       0.000 gal
  SMH-5840             JUNCTION      0.00     0.00     0  00:00           0           0       0.000 gal
  SMH-5841             JUNCTION      0.00     0.00     0  00:00           0           0       0.000 gal
  SMH-5842             JUNCTION      0.00     0.00     0  00:00           0           0       0.000 gal
  SMH-5843             JUNCTION      0.00     0.00     0  00:00           0           0       0.000 gal
  SMH-5844             JUNCTION      0.00     0.00     0  00:00           0           0       0.000 gal
  SMH-5845             JUNCTION      0.00     0.00     0  00:00           0           0       0.000 gal
  SMH-5846             JUNCTION      0.00     0.00     0  00:00           0           0       0.000 gal
[...]
  SP4607                  1.67   -nan(ind)  -nan(ind)  -nan(ind)  -nan(ind)  -nan(ind)  -nan(ind)  -nan(ind)  -nan(ind)  -nan(ind)
  SP4608                  9.09   -nan(ind)  -nan(ind)  -nan(ind)  -nan(ind)  -nan(ind)  -nan(ind)  -nan(ind)  -nan(ind)  -nan(ind)
  SP4609                  1.00   -nan(ind)  -nan(ind)  -nan(ind)  -nan(ind)  -nan(ind)  -nan(ind)  -nan(ind)  -nan(ind)  -nan(ind)
  SP4610                  1.00   -nan(ind)  -nan(ind)  -nan(ind)  -nan(ind)  -nan(ind)  -nan(ind)  -nan(ind)  -nan(ind)  -nan(ind)
  SP4611                  1.49   -nan(ind)  -nan(ind)  -nan(ind)  -nan(ind)  -nan(ind)  -nan(ind)  -nan(ind)  -nan(ind)  -nan(ind)
  SP4615                  1.00   -nan(ind)  -nan(ind)  -nan(ind)  -nan(ind)  -nan(ind)  -nan(ind)  -nan(ind)  -nan(ind)  -nan(ind)
  SP4616                  1.04   -nan(ind)  -nan(ind)  -nan(ind)  -nan(ind)  -nan(ind)  -nan(ind)  -nan(ind)  -nan(ind)  -nan(ind)
  SP4617                 28.72   -nan(ind)  -nan(ind)  -nan(ind)  -nan(ind)  -nan(ind)  -nan(ind)  -nan(ind)  -nan(ind)  -nan(ind)
  SP4618                 32.82   -nan(ind)  -nan(ind)  -nan(ind)  -nan(ind)  -nan(ind)  -nan(ind)  -nan(ind)  -nan(ind)  -nan(ind)
  SP4619                  1.00   -nan(ind)  -nan(ind)  -nan(ind)  -nan(ind)  -nan(ind)  -nan(ind)  -nan(ind)  -nan(ind)  -nan(ind)
  SP4694                  1.00   -nan(ind)  -nan(ind)  -nan(ind)  -nan(ind)  -nan(ind)  -nan(ind)  -nan(ind)  -nan(ind)  -nan(ind)
  SP4695                  1.52   -nan(ind)  -nan(ind)  -nan(ind)  -nan(ind)  -nan(ind)  -nan(ind)  -nan(ind)  -nan(ind)  -nan(ind)
  SP4696                  1.19   -nan(ind)  -nan(ind)  -nan(ind)  -nan(ind)  -nan(ind)  -nan(ind)  -nan(ind)  -nan(ind)  -nan(ind)
  SP4697                  1.00   -nan(ind)  -nan(ind)  -nan(ind)  -nan(ind)  -nan(ind)  -nan(ind)  -nan(ind)  -nan(ind)  -nan(ind)
  SP4698                  1.00   -nan(ind)  -nan(ind)  -nan(ind)  -nan(ind)  -nan(ind)  -nan(ind)  -nan(ind)  -nan(ind)  -nan(ind)
  SP4727                  1.00   -nan(ind)  -nan(ind)  -nan(ind)  -nan(ind)  -nan(ind)  -nan(ind)  -nan(ind)  -nan(ind)  -nan(ind)
  SP4728                  1.00   -nan(ind)  -nan(ind)  -nan(ind)  -nan(ind)  -nan(ind)  -nan(ind)  -nan(ind)  -nan(ind)  -nan(ind)
  SP4729                  8.08   -nan(ind)  -nan(ind)  -nan(ind)  -nan(ind)  -nan(ind)  -nan(ind)  -nan(ind)  -nan(ind)  -nan(ind)
  SP4738                  1.00   -nan(ind)  -nan(ind)  -nan(ind)  -nan(ind)  -nan(ind)  -nan(ind)  -nan(ind)  -nan(ind)  -nan(ind)
  SP4885                  1.10   -nan(ind)  -nan(ind)  -nan(ind)  -nan(ind)  -nan(ind)  -nan(ind)  -nan(ind)  -nan(ind)  -nan(ind)
  SP4886                  1.00   -nan(ind)  -nan(ind)  -nan(ind)  -nan(ind)  -nan(ind)  -nan(ind)  -nan(ind)  -nan(ind)  -nan(ind)
  SP4895                  1.00   -nan(ind)  -nan(ind)  -nan(ind)  -nan(ind)  -nan(ind)  -nan(ind)  -nan(ind)  -nan(ind)  -nan(ind)
  SP4896                  1.00   -nan(ind)  -nan(ind)  -nan(ind)  -nan(ind)  -nan(ind)  -nan(ind)  -nan(ind)  -nan(ind)  -nan(ind)
  SP4897                  1.00   -nan(ind)  -nan(ind)  -nan(ind)  -nan(ind)  -nan(ind)  -nan(ind)  -nan(ind)  -nan(ind)  -nan(ind)
  SP4898                  1.00   -nan(ind)  -nan(ind)  -nan(ind)  -nan(ind)  -nan(ind)  -nan(ind)  -nan(ind)  -nan(ind)  -nan(ind)
  SP4899                  1.00   -nan(ind)  -nan(ind)  -nan(ind)  -nan(ind)  -nan(ind)  -nan(ind)  -nan(ind)  -nan(ind)  -nan(ind)
  SP4900                  1.00   -nan(ind)  -nan(ind)  -nan(ind)  -nan(ind)  -nan(ind)  -nan(ind)  -nan(ind)  -nan(ind)  -nan(ind)
  SP4901                  1.00   -nan(ind)  -nan(ind)  -nan(ind)  -nan(ind)  -nan(ind)  -nan(ind)  -nan(ind)  -nan(ind)  -nan(ind)
  SP4902                  1.00   -nan(ind)  -nan(ind)  -nan(ind)  -nan(ind)  -nan(ind)  -nan(ind)  -nan(ind)  -nan(ind)  -nan(ind)
  SP4993                  1.00   -nan(ind)  -nan(ind)  -nan(ind)  -nan(ind)  -nan(ind)  -nan(ind)  -nan(ind)  -nan(ind)  -nan(ind)
  SP5002                  1.00   -nan(ind)  -nan(ind)  -nan(ind)  -nan(ind)  -nan(ind)  -nan(ind)  -nan(ind)  -nan(ind)  -nan(ind)
  SP5024                  1.00   -nan(ind)  -nan(ind)  -nan(ind)  -nan(ind)  -nan(ind)  -nan(ind)  -nan(ind)  -nan(ind)  -nan(ind)
  SP5025                  1.00   -nan(ind)  -nan(ind)  -nan(ind)  -nan(ind)  -nan(ind)  -nan(ind)  -nan(ind)  -nan(ind)  -nan(ind)
  SP5026                  1.00   -nan(ind)  -nan(ind)  -nan(ind)  -nan(ind)  -nan(ind)  -nan(ind)  -nan(ind)  -nan(ind)  -nan(ind)
  SP5030                  1.00   -nan(ind)  -nan(ind)  -nan(ind)  -nan(ind)  -nan(ind)  -nan(ind)  -nan(ind)  -nan(ind)  -nan(ind)
  SP5033                  1.00   -nan(ind)  -nan(ind)  -nan(ind)  -nan(ind)  -nan(ind)  -nan(ind)  -nan(ind)  -nan(ind)  -nan(ind)
  SP5034                  1.00   -nan(ind)  -nan(ind)  -nan(ind)  -nan(ind)  -nan(ind)  -nan(ind)  -nan(ind)  -nan(ind)  -nan(ind)
  SP5055                  1.67   -nan(ind)  -nan(ind)  -nan(ind)  -nan(ind)  -nan(ind)  -nan(ind)  -nan(ind)  -nan(ind)  -nan(ind)
  SP5056                  1.00   -nan(ind)  -nan(ind)  -nan(ind)  -nan(ind)  -nan(ind)  -nan(ind)  -nan(ind)  -nan(ind)  -nan(ind)
  SP5098                  1.00   -nan(ind)  -nan(ind)  -nan(ind)  -nan(ind)  -nan(ind)  -nan(ind)  -nan(ind)  -nan(ind)  -nan(ind)
  SP5102                165.94   -nan(ind)  -nan(ind)  -nan(ind)  -nan(ind)  -nan(ind)  -nan(ind)  -nan(ind)  -nan(ind)  -nan(ind)
  SP5106                 10.57   -nan(ind)  -nan(ind)  -nan(ind)  -nan(ind)  -nan(ind)  -nan(ind)  -nan(ind)  -nan(ind)  -nan(ind)
  SP5107                  1.00   -nan(ind)  -nan(ind)  -nan(ind)  -nan(ind)  -nan(ind)  -nan(ind)  -nan(ind)  -nan(ind)  -nan(ind)
  SP5108                  1.00   -nan(ind)  -nan(ind)  -nan(ind)  -nan(ind)  -nan(ind)  -nan(ind)  -nan(ind)  -nan(ind)  -nan(ind)
  SP5110                  1.00   -nan(ind)  -nan(ind)  -nan(ind)  -nan(ind)  -nan(ind)  -nan(ind)  -nan(ind)  -nan(ind)  -nan(ind)
  SP5126                  1.00   -nan(ind)  -nan(ind)  -nan(ind)  -nan(ind)  -nan(ind)  -nan(ind)  -nan(ind)  -nan(ind)  -nan(ind)
  SP5127                  1.00   -nan(ind)  -nan(ind)  -nan(ind)  -nan(ind)  -nan(ind)  -nan(ind)  -nan(ind)  -nan(ind)  -nan(ind)
  SP5128                  1.00   -nan(ind)  -nan(ind)  -nan(ind)  -nan(ind)  -nan(ind)  -nan(ind)  -nan(ind)  -nan(ind)  -nan(ind)
  SP5143                  1.00   -nan(ind)  -nan(ind)  -nan(ind)  -nan(ind)  -nan(ind)  -nan(ind)  -nan(ind)  -nan(ind)  -nan(ind)
  SP5145                  1.69   -nan(ind)  -nan(ind)  -nan(ind)  -nan(ind)  -nan(ind)  -nan(ind)  -nan(ind)  -nan(ind)  -nan(ind)
  SP5156                  1.00   -nan(ind)  -nan(ind)  -nan(ind)  -nan(ind)  -nan(ind)  -nan(ind)  -nan(ind)  -nan(ind)  -nan(ind)
  SP5158                  1.00   -nan(ind)  -nan(ind)  -nan(ind)  -nan(ind)  -nan(ind)  -nan(ind)  -nan(ind)  -nan(ind)  -nan(ind)
  SP5159                  1.00   -nan(ind)  -nan(ind)  -nan(ind)  -nan(ind)  -nan(ind)  -nan(ind)  -nan(ind)  -nan(ind)  -nan(ind)
  SP5504                  1.00   -nan(ind)  -nan(ind)  -nan(ind)  -nan(ind)  -nan(ind)  -nan(ind)  -nan(ind)  -nan(ind)  -nan(ind)
  SP5505                  1.00   -nan(ind)  -nan(ind)  -nan(ind)  -nan(ind)  -nan(ind)  -nan(ind)  -nan(ind)  -nan(ind)  -nan(ind)
  SP5506                  1.00   -nan(ind)  -nan(ind)  -nan(ind)  -nan(ind)  -nan(ind)  -nan(ind)  -nan(ind)  -nan(ind)  -nan(ind)
  SP5507                  1.00   -nan(ind)  -nan(ind)  -nan(ind)  -nan(ind)  -nan(ind)  -nan(ind)  -nan(ind)  -nan(ind)  -nan(ind)
  SP5508                  1.00   -nan(ind)  -nan(ind)  -nan(ind)  -nan(ind)  -nan(ind)  -nan(ind)  -nan(ind)  -nan(ind)  -nan(ind)
  SP5509                  1.00   -nan(ind)  -nan(ind)  -nan(ind)  -nan(ind)  -nan(ind)  -nan(ind)  -nan(ind)  -nan(ind)  -nan(ind)
  SP5510                  1.00   -nan(ind)  -nan(ind)  -nan(ind)  -nan(ind)  -nan(ind)  -nan(ind)  -nan(ind)  -nan(ind)  -nan(ind)
  SP5511                  1.00   -nan(ind)  -nan(ind)  -nan(ind)  -nan(ind)  -nan(ind)  -nan(ind)  -nan(ind)  -nan(ind)  -nan(ind)
  SP5513                  1.00   -nan(ind)  -nan(ind)  -nan(ind)  -nan(ind)  -nan(ind)  -nan(ind)  -nan(ind)  -nan(ind)  -nan(ind)
  SP5514                  1.00   -nan(ind)  -nan(ind)  -nan(ind)  -nan(ind)  -nan(ind)  -nan(ind)  -nan(ind)  -nan(ind)  -nan(ind)
  SP5515                  1.00   -nan(ind)  -nan(ind)  -nan(ind)  -nan(ind)  -nan(ind)  -nan(ind)  -nan(ind)  -nan(ind)  -nan(ind)
  SP5516                  1.00   -nan(ind)  -nan(ind)  -nan(ind)  -nan(ind)  -nan(ind)  -nan(ind)  -nan(ind)  -nan(ind)  -nan(ind)
  SP5517                  1.00   -nan(ind)  -nan(ind)  -nan(ind)  -nan(ind)  -nan(ind)  -nan(ind)  -nan(ind)  -nan(ind)  -nan(ind)
  SP5518                  1.00   -nan(ind)  -nan(ind)  -nan(ind)  -nan(ind)  -nan(ind)  -nan(ind)  -nan(ind)  -nan(ind)  -nan(ind)
  SP5519                  1.00   -nan(ind)  -nan(ind)  -nan(ind)  -nan(ind)  -nan(ind)  -nan(ind)  -nan(ind)  -nan(ind)  -nan(ind)
  SP5520                  1.00   -nan(ind)  -nan(ind)  -nan(ind)  -nan(ind)  -nan(ind)  -nan(ind)  -nan(ind)  -nan(ind)  -nan(ind)
  SP5521                  1.13   -nan(ind)  -nan(ind)  -nan(ind)  -nan(ind)  -nan(ind)  -nan(ind)  -nan(ind)  -nan(ind)  -nan(ind)
  SP5522                  1.83   -nan(ind)  -nan(ind)  -nan(ind)  -nan(ind)  -nan(ind)  -nan(ind)  -nan(ind)  -nan(ind)  -nan(ind)
  SP5523                  1.00   -nan(ind)  -nan(ind)  -nan(ind)  -nan(ind)  -nan(ind)  -nan(ind)  -nan(ind)  -nan(ind)  -nan(ind)
  SP5524                  1.00   -nan(ind)  -nan(ind)  -nan(ind)  -nan(ind)  -nan(ind)  -nan(ind)  -nan(ind)  -nan(ind)  -nan(ind)
  SP5525                  1.00   -nan(ind)  -nan(ind)  -nan(ind)  -nan(ind)  -nan(ind)  -nan(ind)  -nan(ind)  -nan(ind)  -nan(ind)
  SP5526                  1.00   -nan(ind)  -nan(ind)  -nan(ind)  -nan(ind)  -nan(ind)  -nan(ind)  -nan(ind)  -nan(ind)  -nan(ind)
  SP5527                  1.00   -nan(ind)  -nan(ind)  -nan(ind)  -nan(ind)  -nan(ind)  -nan(ind)  -nan(ind)  -nan(ind)  -nan(ind)
  SP5528                  1.00   -nan(ind)  -nan(ind)  -nan(ind)  -nan(ind)  -nan(ind)  -nan(ind)  -nan(ind)  -nan(ind)  -nan(ind)
  SP5531                  1.00   -nan(ind)  -nan(ind)  -nan(ind)  -nan(ind)  -nan(ind)  -nan(ind)  -nan(ind)  -nan(ind)  -nan(ind)
  SP5532                  1.00   -nan(ind)  -nan(ind)  -nan(ind)  -nan(ind)  -nan(ind)  -nan(ind)  -nan(ind)  -nan(ind)  -nan(ind)
  SP5533                  1.00   -nan(ind)  -nan(ind)  -nan(ind)  -nan(ind)  -nan(ind)  -nan(ind)  -nan(ind)  -nan(ind)  -nan(ind)
  SP5542                  1.06   -nan(ind)  -nan(ind)  -nan(ind)  -nan(ind)  -nan(ind)  -nan(ind)  -nan(ind)  -nan(ind)  -nan(ind)
  SP5543                  1.29   -nan(ind)  -nan(ind)  -nan(ind)  -nan(ind)  -nan(ind)  -nan(ind)  -nan(ind)  -nan(ind)  -nan(ind)
  SP5547                  1.18   -nan(ind)  -nan(ind)  -nan(ind)  -nan(ind)  -nan(ind)  -nan(ind)  -nan(ind)  -nan(ind)  -nan(ind)
  SP5548                  1.19   -nan(ind)  -nan(ind)  -nan(ind)  -nan(ind)  -nan(ind)  -nan(ind)  -nan(ind)  -nan(ind)  -nan(ind)
  SP5554                  1.00   -nan(ind)  -nan(ind)  -nan(ind)  -nan(ind)  -nan(ind)  -nan(ind)  -nan(ind)  -nan(ind)  -nan(ind)
  SP5555                  1.00   -nan(ind)  -nan(ind)  -nan(ind)  -nan(ind)  -nan(ind)  -nan(ind)  -nan(ind)  -nan(ind)  -nan(ind)
  SP5556                  1.00   -nan(ind)  -nan(ind)  -nan(ind)  -nan(ind)  -nan(ind)  -nan(ind)  -nan(ind)  -nan(ind)  -nan(ind)
  SP5557                  1.00   -nan(ind)  -nan(ind)  -nan(ind)  -nan(ind)  -nan(ind)  -nan(ind)  -nan(ind)  -nan(ind)  -nan(ind)
  SP5558                  1.00   -nan(ind)  -nan(ind)  -nan(ind)  -nan(ind)  -nan(ind)  -nan(ind)  -nan(ind)  -nan(ind)  -nan(ind)
  SP5559                  1.00   -nan(ind)  -nan(ind)  -nan(ind)  -nan(ind)  -nan(ind)  -nan(ind)  -nan(ind)  -nan(ind)  -nan(ind)
  SP5560                  1.00   -nan(ind)  -nan(ind)  -nan(ind)  -nan(ind)  -nan(ind)  -nan(ind)  -nan(ind)  -nan(ind)  -nan(ind)
  SP5561                  1.00   -nan(ind)  -nan(ind)  -nan(ind)  -nan(ind)  -nan(ind)  -nan(ind)  -nan(ind)  -nan(ind)  -nan(ind)
  SP5562                  1.00   -nan(ind)  -nan(ind)  -nan(ind)  -nan(ind)  -nan(ind)  -nan(ind)  -nan(ind)  -nan(ind)  -nan(ind)
  SP5563                  1.00   -nan(ind)  -nan(ind)  -nan(ind)  -nan(ind)  -nan(ind)  -nan(ind)  -nan(ind)  -nan(ind)  -nan(ind)
  SP5564                  1.00   -nan(ind)  -nan(ind)  -nan(ind)  -nan(ind)  -nan(ind)  -nan(ind)  -nan(ind)  -nan(ind)  -nan(ind)
  SP5608                 27.63   -nan(ind)  -nan(ind)  -nan(ind)  -nan(ind)  -nan(ind)  -nan(ind)  -nan(ind)  -nan(ind)  -nan(ind)
  SP5610                  1.00   -nan(ind)  -nan(ind)  -nan(ind)  -nan(ind)  -nan(ind)  -nan(ind)  -nan(ind)  -nan(ind)  -nan(ind)
  SP5632                  2.42   -nan(ind)  -nan(ind)  -nan(ind)  -nan(ind)  -nan(ind)  -nan(ind)  -nan(ind)  -nan(ind)  -nan(ind)
  SP5633                  7.81   -nan(ind)  -nan(ind)  -nan(ind)  -nan(ind)  -nan(ind)  -nan(ind)  -nan(ind)  -nan(ind)  -nan(ind)
  SP5634                 10.87   -nan(ind)  -nan(ind)  -nan(ind)  -nan(ind)  -nan(ind)  -nan(ind)  -nan(ind)  -nan(ind)  -nan(ind)
  SP5635                  1.00   -nan(ind)  -nan(ind)  -nan(ind)  -nan(ind)  -nan(ind)  -nan(ind)  -nan(ind)  -nan(ind)  -nan(ind)
  SP5636                  3.01   -nan(ind)  -nan(ind)  -nan(ind)  -nan(ind)  -nan(ind)  -nan(ind)  -nan(ind)  -nan(ind)  -nan(ind)
  SP5636-54in             3.52   -nan(ind)  -nan(ind)  -nan(ind)  -nan(ind)  -nan(ind)  -nan(ind)  -nan(ind)  -nan(ind)  -nan(ind)
  SP5637                  1.00   -nan(ind)  -nan(ind)  -nan(ind)  -nan(ind)  -nan(ind)  -nan(ind)  -nan(ind)  -nan(ind)  -nan(ind)
  SP5638                  1.00   -nan(ind)  -nan(ind)  -nan(ind)  -nan(ind)  -nan(ind)  -nan(ind)  -nan(ind)  -nan(ind)  -nan(ind)
  SP5639                  1.00   -nan(ind)  -nan(ind)  -nan(ind)  -nan(ind)  -nan(ind)  -nan(ind)  -nan(ind)  -nan(ind)  -nan(ind)
  SP5641                  1.74   -nan(ind)  -nan(ind)  -nan(ind)  -nan(ind)  -nan(ind)  -nan(ind)  -nan(ind)  -nan(ind)  -nan(ind)
  SP5642                  1.18   -nan(ind)  -nan(ind)  -nan(ind)  -nan(ind)  -nan(ind)  -nan(ind)  -nan(ind)  -nan(ind)  -nan(ind)
  SP5704                  1.00   -nan(ind)  -nan(ind)  -nan(ind)  -nan(ind)  -nan(ind)  -nan(ind)  -nan(ind)  -nan(ind)  -nan(ind)
  SP5705                  1.00   -nan(ind)  -nan(ind)  -nan(ind)  -nan(ind)  -nan(ind)  -nan(ind)  -nan(ind)  -nan(ind)  -nan(ind)
  SP5706                  1.00   -nan(ind)  -nan(ind)  -nan(ind)  -nan(ind)  -nan(ind)  -nan(ind)  -nan(ind)  -nan(ind)  -nan(ind)
  SP5716                  1.00   -nan(ind)  -nan(ind)  -nan(ind)  -nan(ind)  -nan(ind)  -nan(ind)  -nan(ind)  -nan(ind)  -nan(ind)
  SP5717                  1.00   -nan(ind)  -nan(ind)  -nan(ind)  -nan(ind)  -nan(ind)  -nan(ind)  -nan(ind)  -nan(ind)  -nan(ind)
  SP5728                  1.00   -nan(ind)  -nan(ind)  -nan(ind)  -nan(ind)  -nan(ind)  -nan(ind)  -nan(ind)  -nan(ind)  -nan(ind)
  SP5729                  3.79   -nan(ind)  -nan(ind)  -nan(ind)  -nan(ind)  -nan(ind)  -nan(ind)  -nan(ind)  -nan(ind)  -nan(ind)
  SP5730                  1.00   -nan(ind)  -nan(ind)  -nan(ind)  -nan(ind)  -nan(ind)  -nan(ind)  -nan(ind)  -nan(ind)  -nan(ind)
  SP5817                  1.95   -nan(ind)  -nan(ind)  -nan(ind)  -nan(ind)  -nan(ind)  -nan(ind)  -nan(ind)  -nan(ind)  -nan(ind)
  SP5818                  1.83   -nan(ind)  -nan(ind)  -nan(ind)  -nan(ind)  -nan(ind)  -nan(ind)  -nan(ind)  -nan(ind)  -nan(ind)
  SP5819                  2.44   -nan(ind)  -nan(ind)  -nan(ind)  -nan(ind)  -nan(ind)  -nan(ind)  -nan(ind)  -nan(ind)  -nan(ind)
  SP5833                  1.00   -nan(ind)  -nan(ind)  -nan(ind)  -nan(ind)  -nan(ind)  -nan(ind)  -nan(ind)  -nan(ind)  -nan(ind)
  SP5836                  1.27   -nan(ind)  -nan(ind)  -nan(ind)  -nan(ind)  -nan(ind)  -nan(ind)  -nan(ind)  -nan(ind)  -nan(ind)
  SP5873                  5.91   -nan(ind)  -nan(ind)  -nan(ind)  -nan(ind)  -nan(ind)  -nan(ind)  -nan(ind)  -nan(ind)  -nan(ind)
  SP5891                  2.30   -nan(ind)  -nan(ind)  -nan(ind)  -nan(ind)  -nan(ind)  -nan(ind)  -nan(ind)  -nan(ind)  -nan(ind)
  SP5892                  3.60   -nan(ind)  -nan(ind)  -nan(ind)  -nan(ind)  -nan(ind)  -nan(ind)  -nan(ind)  -nan(ind)  -nan(ind)
  SP5893                  1.97   -nan(ind)  -nan(ind)  -nan(ind)  -nan(ind)  -nan(ind)  -nan(ind)  -nan(ind)  -nan(ind)  -nan(ind)
  SP6427                  1.00   -nan(ind)  -nan(ind)  -nan(ind)  -nan(ind)  -nan(ind)  -nan(ind)  -nan(ind)  -nan(ind)  -nan(ind)
  SP6428                  1.00   -nan(ind)  -nan(ind)  -nan(ind)  -nan(ind)  -nan(ind)  -nan(ind)  -nan(ind)  -nan(ind)  -nan(ind)
  SP6429                  1.00   -nan(ind)  -nan(ind)  -nan(ind)  -nan(ind)  -nan(ind)  -nan(ind)  -nan(ind)  -nan(ind)  -nan(ind)
  SP6432                  1.00   -nan(ind)  -nan(ind)  -nan(ind)  -nan(ind)  -nan(ind)  -nan(ind)  -nan(ind)  -nan(ind)  -nan(ind)
  SP6433                  1.00   -nan(ind)  -nan(ind)  -nan(ind)  -nan(ind)  -nan(ind)  -nan(ind)  -nan(ind)  -nan(ind)  -nan(ind)
  SP6434                  1.00   -nan(ind)  -nan(ind)  -nan(ind)  -nan(ind)  -nan(ind)  -nan(ind)  -nan(ind)  -nan(ind)  -nan(ind)
  SP6435                  1.00   -nan(ind)  -nan(ind)  -nan(ind)  -nan(ind)  -nan(ind)  -nan(ind)  -nan(ind)  -nan(ind)  -nan(ind)
  SP6436                  1.00   -nan(ind)  -nan(ind)  -nan(ind)  -nan(ind)  -nan(ind)  -nan(ind)  -nan(ind)  -nan(ind)  -nan(ind)
  SP6437                  1.00   -nan(ind)  -nan(ind)  -nan(ind)  -nan(ind)  -nan(ind)  -nan(ind)  -nan(ind)  -nan(ind)  -nan(ind)
  SP6438                  2.69   -nan(ind)  -nan(ind)  -nan(ind)  -nan(ind)  -nan(ind)  -nan(ind)  -nan(ind)  -nan(ind)  -nan(ind)
  SP6538                  1.00   -nan(ind)  -nan(ind)  -nan(ind)  -nan(ind)  -nan(ind)  -nan(ind)  -nan(ind)  -nan(ind)  -nan(ind)
  SP6539                  1.00   -nan(ind)  -nan(ind)  -nan(ind)  -nan(ind)  -nan(ind)  -nan(ind)  -nan(ind)  -nan(ind)  -nan(ind)
  WWTPFM2                 1.00   -nan(ind)  -nan(ind)  -nan(ind)  -nan(ind)  -nan(ind)  -nan(ind)  -nan(ind)  -nan(ind)  -nan(ind)
  2                       1.81   -nan(ind)  -nan(ind)  -nan(ind)  -nan(ind)  -nan(ind)  -nan(ind)  -nan(ind)  -nan(ind)  -nan(ind)
  3                       3.79   -nan(ind)  -nan(ind)  -nan(ind)  -nan(ind)  -nan(ind)  -nan(ind)  -nan(ind)  -nan(ind)  -nan(ind)
  LowSiphDS_C             2.91   -nan(ind)  -nan(ind)  -nan(ind)  -nan(ind)  -nan(ind)  -nan(ind)  -nan(ind)  -nan(ind)  -nan(ind)
  4                       1.10   -nan(ind)  -nan(ind)  -nan(ind)  -nan(ind)  -nan(ind)  -nan(ind)  -nan(ind)  -nan(ind)  -nan(ind)
  
  
  *************************
  Conduit Surcharge Summary
  *************************
  
  No conduits were surcharged.
  
  
  ***************
  Pumping Summary
  ***************
  
  ---------------------------------------------------------------------------------------------------------
                                                  Min       Avg       Max     Total     Power    % Time Off
                        Percent   Number of      Flow      Flow      Flow    Volume     Usage    Pump Curve
  Pump                 Utilized   Start-Ups       CFS       CFS       CFS  10^6 gal     Kw-hr    Low   High
  ---------------------------------------------------------------------------------------------------------
  FM48pump             -nan(ind)           0      0.00      0.00      0.00     0.000      0.00    0.0    0.0
  FM64                 -nan(ind)           0      0.00      0.00      0.00     0.000      0.00    0.0    0.0
  SP27493              -nan(ind)           0      0.00      0.00      0.00     0.000      0.00    0.0    0.0
  MarginalPump         -nan(ind)           0      0.00      0.00      0.00     0.000      0.00    0.0    0.0
  

  Analysis begun on:  Sat Nov 30 08:09:55 2019
  Analysis ended on:  Sat Nov 30 08:09:55 2019
  Total elapsed time: < 1 sec