
  EPA STORM WATER MANAGEMENT MODEL - VERSION 5.1 (Build 5.1.013)
  --------------------------------------------------------------

   10-yr 
  
  WARNING 04: minimum elevation drop used for Conduit DGM_00947.1
  WARNING 04: minimum elevation drop used for Conduit DGM_01295.1
  WARNING 04: minimum elevation drop used for Conduit DGM_04116.1
  WARNING 04: minimum elevation drop used for Conduit Node706.1
  WARNING 04: minimum elevation drop used for Conduit Node8006.1
  WARNING 04: minimum elevation drop used for Conduit Node917.1
  WARNING 04: minimum elevation drop used for Conduit Link3771
  WARNING 04: minimum elevation drop used for Conduit Link3772
  WARNING 04: minimum elevation drop used for Conduit Link3774
  WARNING 04: minimum elevation drop used for Conduit Link3775
  
  *************
  Element Count
  *************
  Number of rain gages ...... 1
  Number of subcatchments ... 344
  Number of nodes ........... 401
  Number of links ........... 387
  Number of pollutants ...... 0
  Number of land uses ....... 0
  
  
  ****************
  Raingage Summary
  ****************
                                                      Data       Recording
  Name                 Data Source                    Type       Interval 
  ------------------------------------------------------------------------
  10_Year.1            RN#26                          INTENSITY   10 min.
  
  
  ********************
  Subcatchment Summary
  ********************
  Name                       Area     Width   %Imperv    %Slope Rain Gage            Outlet              
  -----------------------------------------------------------------------------------------------------------
  DGM_00025#1                5.42     19.60     16.10    0.5000 10_Year.1            DGM_00025           
  DGM_00056#1                0.62     91.60     41.40    0.4000 10_Year.1            DGM_00056           
  DGM_00075#1                0.65     52.20     45.90    0.1000 10_Year.1            DGM_00075           
  DGM_00075#2                2.00    160.32     38.10    0.1000 10_Year.1            DGM_00075           
  DGM_00078#1                0.20     17.90     42.90    0.3000 10_Year.1            DGM_00078           
  DGM_00078#2                0.51     45.46     44.20    0.3000 10_Year.1            DGM_00078           
  DGM_00488#1                8.80     31.80     40.20    0.5000 10_Year.1            DGM_00488           
  DGM_00921#1                0.78     71.90     41.30    0.5000 10_Year.1            DGM_00921           
  DGM_00924#1                1.07    130.90     56.50    0.2000 10_Year.1            DGM_00924           
  DGM_00924#2                0.19     23.28     57.20    0.2000 10_Year.1            DGM_00924           
  DGM_00927#1                1.49    173.10     58.30    0.5000 10_Year.1            DGM_00927           
  DGM_00927#2                1.79    209.21     56.80    0.1000 10_Year.1            DGM_00927           
  DGM_00933#1                1.33    144.90     50.20    0.5000 10_Year.1            DGM_00933           
  DGM_00935#1                3.13    854.20     37.00    0.5000 10_Year.1            DGM_00935           
  DGM_00947#1                5.76     20.80     40.20    0.5000 10_Year.1            DGM_00947           
  DGM_00948#1                1.51    197.10     40.10    0.5000 10_Year.1            DGM_00948           
  DGM_00949#1                4.68    464.10     38.80    0.5000 10_Year.1            DGM_00949           
  DGM_00950#1                0.38     48.60     44.30    0.5000 10_Year.1            DGM_00950           
  DGM_00964#1                1.05     59.40     61.10    0.5000 10_Year.1            DGM_00964           
  DGM_00966#1                0.43     28.20     32.60    2.3000 10_Year.1            DGM_00966           
  DGM_00966#2                0.62     41.23     35.70    2.3000 10_Year.1            DGM_00966           
  DGM_00967#1                1.46    105.20     33.10    0.5000 10_Year.1            DGM_00967           
  DGM_00968#1                1.33     96.70     44.20    0.3000 10_Year.1            DGM_00968           
  DGM_01102#1                5.88     21.20     34.20    0.5000 10_Year.1            DGM_01102           
  DGM_01103#1                1.24    101.60     27.60    0.5000 10_Year.1            DGM_01103           
  DGM_01225#1                0.03      7.50     43.60    6.4000 10_Year.1            DGM_01225           
  DGM_01225#2                1.82    487.13     40.50    6.4000 10_Year.1            DGM_01225           
  DGM_01231#1               12.30     43.70     71.40    0.5000 10_Year.1            DGM_01231           
  DGM_01239#1                2.25    155.20     41.60    0.5000 10_Year.1            DGM_01239           
  DGM_01281#1                3.49    455.50     37.10    0.5000 10_Year.1            DGM_01281           
  DGM_01288#1                0.71     75.20     41.00    2.1000 10_Year.1            DGM_01288           
  DGM_01289#1                3.38    418.50     38.50    1.0000 10_Year.1            DGM_01289           
  DGM_01295#1                0.59     55.10     46.00    0.5000 10_Year.1            DGM_01295           
  DGM_01346#1                1.66    231.60     40.00    0.5000 10_Year.1            DGM_01346           
  DGM_01366#1                0.43     50.30     39.40    1.7000 10_Year.1            DGM_01366           
  DGM_01366#2                3.07    358.71     36.20    1.7000 10_Year.1            DGM_01366           
  DGM_01377#1                0.62     51.70     44.30    0.7000 10_Year.1            DGM_01377           
  DGM_01377#2                1.85    153.92     40.90    0.7000 10_Year.1            DGM_01377           
  DGM_01482#1                2.19    148.70     39.40    0.8000 10_Year.1            DGM_01482           
  DGM_01500#1                0.94     91.50     40.00    0.7000 10_Year.1            DGM_01500           
  DGM_01728#1                1.50     97.00     34.60    0.2000 10_Year.1            DGM_01728           
  DGM_01733#1                0.55     59.10     38.80    0.5000 10_Year.1            DGM_01733           
  DGM_01733#2                0.31     33.33     44.00    0.1000 10_Year.1            DGM_01733           
  DGM_02015#1                0.85     75.80     43.20    0.9000 10_Year.1            DGM_02015           
  DGM_02045#1                2.17    305.10     45.50    0.8000 10_Year.1            DGM_02045           
  DGM_02126#1                2.36    307.20     36.20    0.5000 10_Year.1            DGM_02126           
  DGM_0215#1                 1.67     73.70     38.10    0.5000 10_Year.1            DGM_0215            
  DGM_0215#2                 4.92    216.71     35.40    0.1000 10_Year.1            DGM_0215            
  DGM_02155#1                0.63     52.40     40.20    0.5000 10_Year.1            DGM_02155           
  DGM_02155#2                1.57    131.39     36.10    0.1000 10_Year.1            DGM_02155           
  DGM_02174#1                0.56     43.70     46.60    1.2000 10_Year.1            DGM_02174           
  DGM_02174#2                3.07    237.57     41.20    1.2000 10_Year.1            DGM_02174           
  DGM_02174#3                6.28    486.44     40.20    1.2000 10_Year.1            DGM_02174           
  DGM_02175#1               21.63     75.50     40.20    0.5000 10_Year.1            DGM_02175           
  DGM_02297#1                0.78     63.70     48.10    1.6000 10_Year.1            DGM_02297           
  DGM_02298#1                0.73     63.50     48.10    2.0000 10_Year.1            DGM_02298           
  DGM_02299#1                0.84     69.20     48.10    1.4000 10_Year.1            DGM_02299           
  DGM_02439#1                0.46     37.50     48.40    0.5000 10_Year.1            DGM_02439           
  DGM_02439#2                0.44     35.78     48.40    0.5000 10_Year.1            DGM_02439           
  DGM_02488#1                0.68     53.70     48.50    0.5000 10_Year.1            DGM_02488           
  DGM_02488#2                0.59     46.84     49.80    0.1000 10_Year.1            DGM_02488           
  DGM_02681#1                0.61    161.30     47.90    0.5000 10_Year.1            DGM_02681           
  DGM_03127#1                1.39    282.70     40.70    3.3000 10_Year.1            DGM_03127           
  DGM_03127#2                0.55    112.02     38.70    3.3000 10_Year.1            DGM_03127           
  DGM_03128#1                1.02    156.40     86.60    0.5000 10_Year.1            DGM_03128           
  DGM_03132#1                0.39     57.60     45.00    3.0000 10_Year.1            DGM_03132           
  DGM_03136#1                1.31     79.50     30.40    0.6000 10_Year.1            DGM_03136           
  DGM_03149#1                0.40     59.60     43.20    0.5000 10_Year.1            DGM_03149           
  DGM_03150#1                3.31    431.20     39.50    0.5000 10_Year.1            DGM_03150           
  DGM_03153#1                1.08     89.20     39.80    0.6000 10_Year.1            DGM_03153           
  DGM_03158#1                0.35     26.40     46.40    0.6000 10_Year.1            DGM_03158           
  DGM_03158#2                1.73    130.03     46.90    0.6000 10_Year.1            DGM_03158           
  DGM_03168#1                1.28    115.50     38.10    0.3000 10_Year.1            DGM_03168           
  DGM_03168#2                5.39    486.91     36.90    0.3000 10_Year.1            DGM_03168           
  DGM_03170#1                1.39     78.90     37.60    1.2000 10_Year.1            DGM_03170           
  DGM_03172#2                0.30     29.16     41.00    1.4000 10_Year.1            DGM_03172           
  DGM_03174#1                0.86    117.30     46.40    2.2000 10_Year.1            DGM_03174           
  DGM_03176#1               23.88     83.30     39.50    0.5000 10_Year.1            DGM_03176           
  DGM_03177#1                1.16     73.70     43.60    0.3000 10_Year.1            DGM_03177           
  DGM_03178#1                0.80     66.90     48.10    1.3000 10_Year.1            DGM_03178           
  DGM_03184#1                0.26     31.90     50.10    0.3000 10_Year.1            DGM_03184           
  DGM_03405#1                1.28    137.40     43.40    0.5000 10_Year.1            DGM_03405           
  DGM_03418#1                1.09     82.00     34.90    0.8000 10_Year.1            DGM_03418           
  DGM_03423#1                0.69     94.60     44.30    0.5000 10_Year.1            DGM_03423           
  DGM_03434#1                6.08     22.00     39.10    0.5000 10_Year.1            DGM_03434           
  DGM_03439#1                3.05    182.10     38.20    0.2000 10_Year.1            DGM_03439           
  DGM_03440#1                1.73    225.00     86.90    0.5000 10_Year.1            DGM_03440           
  DGM_03447#1                1.30    194.30     42.10    0.5000 10_Year.1            DGM_03447           
  DGM_03448#1                0.76     59.20     45.90    0.5000 10_Year.1            DGM_03448           
  DGM_03506#1                0.07     15.20     43.60    4.7000 10_Year.1            DGM_03506           
  DGM_03506#2                0.31     63.03     42.50    4.7000 10_Year.1            DGM_03506           
  DGM_03507#1                0.56     65.80     48.10    1.8000 10_Year.1            DGM_03507           
  DGM_03532#1                0.48     42.00     49.40    0.3000 10_Year.1            DGM_03532           
  DGM_03926#1                1.64    334.00     56.20    1.0000 10_Year.1            DGM_03926           
  DGM_03934#1                0.98    131.10     37.70    1.3000 10_Year.1            DGM_03934           
  DGM_03936#1                1.62    134.70     42.10    0.5000 10_Year.1            DGM_03936           
  DGM_03942#1                4.74    617.60     71.30    0.5000 10_Year.1            DGM_03942           
  DGM_03942#2                4.80     80.70     72.00    0.5000 10_Year.1            DGM_03942           
  DGM_03970#1                1.83    139.60     38.30    0.7000 10_Year.1            DGM_03970           
  DGM_03972#1                0.82     74.70     45.70    0.7000 10_Year.1            DGM_03972           
  DGM_03981#1                3.23    421.30     36.70    0.5000 10_Year.1            DGM_03981           
  DGM_03982#1                0.41     57.40     38.40    0.5000 10_Year.1            DGM_03982           
  DGM_03983#1                3.38    417.80     40.00    0.5000 10_Year.1            DGM_03983           
  DGM_03991#1                3.70    482.00     32.90    0.5000 10_Year.1            DGM_03991           
  DGM_03993#1                0.68    100.10     43.50    0.4000 10_Year.1            DGM_03993           
  DGM_03993#2                3.79    556.62     38.80    0.4000 10_Year.1            DGM_03993           
  DGM_04003#1                1.06    140.10     38.90    1.0000 10_Year.1            DGM_04003           
  DGM_04003#2                2.67    353.71     36.00    1.0000 10_Year.1            DGM_04003           
  DGM_04008#1                1.40    164.90     39.40    1.1000 10_Year.1            DGM_04008           
  DGM_04018#1                3.92    511.60     34.70    0.5000 10_Year.1            DGM_04018           
  DGM_04019#1                0.52     63.90     47.10    0.5000 10_Year.1            DGM_04019           
  DGM_04020#1                1.29    103.50     33.20    0.4000 10_Year.1            DGM_04020           
  DGM_04026#1                0.70     71.50     40.30    0.5000 10_Year.1            DGM_04026           
  DGM_04026#2                2.67    273.42     35.60    0.1000 10_Year.1            DGM_04026           
  DGM_04027#1                0.66     95.90     39.00    0.5000 10_Year.1            DGM_04027           
  DGM_04029#1                1.10    148.00     41.20    0.7000 10_Year.1            DGM_04029           
  DGM_04030#1                1.51    191.60     43.60    0.1000 10_Year.1            DGM_04030           
  DGM_04030#2                0.73     93.01     41.50    0.1000 10_Year.1            DGM_04030           
  DGM_04032#1                0.23     30.80     43.60    1.8000 10_Year.1            DGM_04032           
  DGM_04043#1                2.28    296.70     39.20    0.5000 10_Year.1            DGM_04043           
  DGM_04043#2                3.36     80.70     40.60    0.5000 10_Year.1            DGM_04043           
  DGM_04044#1                1.32    157.70     36.90    0.5000 10_Year.1            DGM_04044           
  DGM_04068#1                4.14    540.40     34.90    0.5000 10_Year.1            DGM_04068           
  DGM_04070#1                1.47    153.20     44.10    1.5000 10_Year.1            DGM_04070           
  DGM_04071#1                0.92    112.30     42.20    1.8000 10_Year.1            DGM_04071           
  DGM_04081#1                5.81     21.00     44.20    0.5000 10_Year.1            DGM_04081           
  DGM_04101#1                1.01    118.30     41.10    1.2000 10_Year.1            DGM_04101           
  DGM_04101#2                2.97    345.92     35.40    1.2000 10_Year.1            DGM_04101           
  DGM_04104#1                0.96     86.60     38.30    0.8000 10_Year.1            DGM_04104           
  DGM_04104#2                3.09    278.99     35.00    0.3000 10_Year.1            DGM_04104           
  DGM_04105#1                0.54     74.40     36.60    0.7000 10_Year.1            DGM_04105           
  DGM_04106#1                0.80     74.40     63.10    0.5000 10_Year.1            DGM_04106           
  DGM_04108#1                2.33    182.90     49.90    0.5000 10_Year.1            DGM_04108           
  DGM_04109#1                1.40    361.20     77.50    0.4000 10_Year.1            DGM_04109           
  DGM_04111#1                1.07    100.70     37.30    0.5000 10_Year.1            DGM_04111           
  DGM_04112#1               11.19     39.70     64.10    0.4000 10_Year.1            DGM_04112           
  DGM_04116#1                0.45     56.80     41.50    0.5000 10_Year.1            DGM_04116           
  DGM_04121#1                0.96    125.70     47.40    0.5000 10_Year.1            DGM_04121           
  DGM_04123#1                1.15    159.90     42.10    0.5000 10_Year.1            DGM_04123           
  DGM_04124#1                0.59    130.50     79.90    1.0000 10_Year.1            DGM_04124           
  DGM_04129#1                0.22     30.30     49.40    0.5000 10_Year.1            DGM_04129           
  DGM_04135#1                1.13     85.00     36.10    0.5000 10_Year.1            DGM_04135           
  DGM_04136#1                3.91    510.00     62.00    0.5000 10_Year.1            DGM_04136           
  DGM_04141#1                0.36     39.10     41.90    0.6000 10_Year.1            DGM_04141           
  DGM_04141#2                1.32    142.46     41.10    0.6000 10_Year.1            DGM_04141           
  DGM_04145#1                0.40     42.20     37.90    1.7000 10_Year.1            DGM_04145           
  DGM_04145#2                2.75    290.08     35.60    1.7000 10_Year.1            DGM_04145           
  DGM_04146#1                0.19     16.50     92.90    0.1000 10_Year.1            DGM_04146           
  DGM_04162#1                2.70    351.50     37.80    0.5000 10_Year.1            DGM_04162           
  DGM_04163#1                1.20    148.30     37.40    0.5000 10_Year.1            DGM_04163           
  DGM_04163#2                1.88    232.30     37.50    0.1000 10_Year.1            DGM_04163           
  DGM_04165#1                0.34     38.30     49.40    0.5000 10_Year.1            DGM_04165           
  DGM_04167#1                2.08    443.20     39.90    0.5000 10_Year.1            DGM_04167           
  DGM_04169#1                1.40    108.80     40.80    0.5000 10_Year.1            DGM_04169           
  DGM_04170#1                0.78    108.50     38.70    0.5000 10_Year.1            DGM_04170           
  DGM_04172#1                0.68     61.70     43.10    0.5000 10_Year.1            DGM_04172           
  DGM_04173#1                3.30    502.60     39.20    0.4000 10_Year.1            DGM_04173           
  DGM_04174#1                0.35     54.00     56.50    0.8000 10_Year.1            DGM_04174           
  DGM_04178#1                1.60    201.80     38.40    0.5000 10_Year.1            DGM_04178           
  DGM_04180#1                0.33     35.80     48.30    0.1000 10_Year.1            DGM_04180           
  DGM_04181#1                0.62     52.70     42.50    0.5000 10_Year.1            DGM_04181           
  DGM_04187#1                3.94    514.10     38.00    0.5000 10_Year.1            DGM_04187           
  DGM_04188#1                0.52     67.30     40.30    2.0000 10_Year.1            DGM_04188           
  DGM_04189#1                0.59     74.80     37.50    0.3000 10_Year.1            DGM_04189           
  DGM_04191#1                1.08    140.70     36.00    0.5000 10_Year.1            DGM_04191           
  DGM_04192#1                0.62     60.20     44.10    0.5000 10_Year.1            DGM_04192           
  DGM_04198#1                2.65    346.20     33.20    0.5000 10_Year.1            DGM_04198           
  DGM_04200#1                0.25     41.30     43.10    0.4000 10_Year.1            DGM_04200           
  DGM_04201#1                0.59     54.00     53.60    0.5000 10_Year.1            DGM_04201           
  DGM_04207#1                2.67    348.00     37.00    0.5000 10_Year.1            DGM_04207           
  DGM_04207#2                1.87     80.70     35.80    0.5000 10_Year.1            DGM_04207           
  DGM_04210#1                0.34     51.70     49.20    0.9000 10_Year.1            DGM_04210           
  DGM_04211#1                3.02    454.80     32.10    0.5000 10_Year.1            DGM_04211           
  DGM_04215#1                0.78    109.60     35.20    0.5000 10_Year.1            DGM_04215           
  DGM_04216#1                0.84     85.40     55.10    0.3000 10_Year.1            DGM_04216           
  DGM_04222#1                1.05     64.50     43.50    0.5000 10_Year.1            DGM_04222           
  DGM_04223#1                1.51    117.80     37.20    0.8000 10_Year.1            DGM_04223           
  DGM_04223#2                0.99     76.89     35.40    0.5000 10_Year.1            DGM_04223           
  DGM_04234#1                0.72     55.30     45.70    0.5000 10_Year.1            DGM_04234           
  DGM_04234#2                2.49    192.58     38.10    0.1000 10_Year.1            DGM_04234           
  DGM_04241#1                0.62     46.60     47.80    1.2000 10_Year.1            DGM_04241           
  DGM_04241#2                5.96    449.43     38.80    1.2000 10_Year.1            DGM_04241           
  DGM_04242#1                1.79    267.80     41.50    3.4000 10_Year.1            DGM_04242           
  DGM_04242#2                1.52    227.01     44.10    3.4000 10_Year.1            DGM_04242           
  DGM_04251#1                3.44    476.20     38.50    0.6000 10_Year.1            DGM_04251           
  DGM_04262#1                0.81     93.90     48.90    0.1000 10_Year.1            DGM_04262           
  DGM_04266#1                3.79    333.80     34.90    0.5000 10_Year.1            DGM_04266           
  DGM_04273#1                1.64    129.40     42.10    0.5000 10_Year.1            DGM_04273           
  DGM_04276#1                6.32     22.90     31.40    0.5000 10_Year.1            DGM_04276           
  DGM_04285#1                1.34    200.70     48.30    0.7000 10_Year.1            DGM_04285           
  DGM_04289#1                2.32    231.70     32.70   12.5000 10_Year.1            DGM_04289           
  DGM_04303#1                4.46    540.90     34.00    5.2000 10_Year.1            DGM_04303           
  DGM_04303#2                0.83    101.21     30.30    5.2000 10_Year.1            DGM_04303           
  DGM_04304#1                2.70    388.50     41.30   25.2000 10_Year.1            DGM_04304           
  DGM_04319#1                4.92    642.00     31.70    0.5000 10_Year.1            DGM_04319           
  DGM_04331#1                2.96    385.30     40.20    0.5000 10_Year.1            DGM_04331           
  DGM_04331#3                3.00     80.70     40.60    0.5000 10_Year.1            DGM_04331           
  DGM_04341#1                0.62     47.40     53.60    0.5000 10_Year.1            DGM_04341           
  DGM_04342#1                0.79    148.30     37.80    0.5000 10_Year.1            DGM_04342           
  DGM_04342#2                5.93   1110.30     32.70    0.1000 10_Year.1            DGM_04342           
  DGM_04348#1                1.39    181.20     39.10    0.5000 10_Year.1            DGM_04348           
  DGM_04350#1                2.34    305.10      1.60    0.5000 10_Year.1            DGM_04350           
  DGM_04351#1               11.85     42.10     29.00    0.5000 10_Year.1            DGM_04351           
  DGM_04352#1                0.36     48.60     43.00    0.5000 10_Year.1            DGM_04352           
  DGM_04354#1                0.50     62.40     43.20    0.5000 10_Year.1            DGM_04354           
  DGM_04357#1                1.30    124.50     41.20    0.8000 10_Year.1            DGM_04357           
  DGM_04365#1                9.96     36.00     38.90    0.5000 10_Year.1            DGM_04365           
  DGM_04366#1                2.15    206.80     39.40    0.9000 10_Year.1            DGM_04366           
  DGM_04381#1                0.83     71.00     45.60    0.2000 10_Year.1            DGM_04381           
  DGM_04382#1                2.35    144.00     32.70    0.5000 10_Year.1            DGM_04382           
  DGM_04384#1                1.76    154.60     35.80    0.5000 10_Year.1            DGM_04384           
  DGM_04386#1                2.90    223.70     36.90    0.3000 10_Year.1            DGM_04386           
  DGM_04389#1                1.99    163.60     40.30    0.5000 10_Year.1            DGM_04389           
  DGM_04389#2                0.66     54.74     35.40    0.1000 10_Year.1            DGM_04389           
  DGM_04392#1               22.86     79.70     46.50    0.5000 10_Year.1            DGM_04392           
  DGM_04392#2                3.06     80.70     46.50    0.5000 10_Year.1            DGM_04392           
  DGM_04393#1                3.73    276.90     33.00    0.5000 10_Year.1            DGM_04393           
  DGM_04395#1                1.27     95.10     36.70    0.1000 10_Year.1            DGM_04395           
  DGM_04398#1                1.75    202.10     36.40    0.5000 10_Year.1            DGM_04398           
  DGM_04399#1                1.54    462.30     41.20    0.5000 10_Year.1            DGM_04399           
  DGM_04442#1                6.90     24.90     39.10    0.5000 10_Year.1            DGM_04442           
  DGM_04458#1                3.12    407.20     37.30    0.5000 10_Year.1            DGM_04458           
  DGM_04604#1                6.36     23.00     39.10    0.5000 10_Year.1            DGM_04604           
  DGM_04683#1                5.90     21.30     38.20    0.7000 10_Year.1            DGM_04683           
  DGM_04694#1                0.14     14.60     46.00    0.4000 10_Year.1            DGM_04694           
  Node1030#1                 6.09     22.00     39.10    0.5000 10_Year.1            Node1030            
  Node1031#1                 2.15    153.90     43.20    0.3000 10_Year.1            Node1031            
  Node1031#2                 3.30    236.58     43.20    0.3000 10_Year.1            Node1031            
  Node1049#1                 1.01     95.90     57.70    1.0000 10_Year.1            Node1049            
  Node1360#2                 0.96     68.77     42.20    0.9000 10_Year.1            Node1360            
  Node1507#1                 4.21    549.30     39.40    0.5000 10_Year.1            Node1507            
  Node1512#1                 6.03     21.80     50.00    0.5000 10_Year.1            Node1512            
  Node1545#1                 2.94    548.80     50.50    0.5000 10_Year.1            Node1545            
  Node1573#1                 4.62    205.50     49.10    0.7000 10_Year.1            Node1573            
  Node1677#1                 1.33    166.70     41.70    0.5000 10_Year.1            Node1677            
  Node1866#1                 2.05    153.80     60.50    0.5000 10_Year.1            Node1866            
  Node1867#1                 0.68     59.50     56.20    0.5000 10_Year.1            Node1867            
  Node1868#1                 2.00    260.80     64.40    0.5000 10_Year.1            Node1868            
  Node2268#1                 4.84    270.00     65.10    1.4000 10_Year.1            Node2268            
  Node2281#1                 6.67     24.10     31.70    0.7000 10_Year.1            Node2281            
  Node2281#2                 0.51     70.95     37.30    0.7000 10_Year.1            Node2281            
  Node2282#1                 0.57     67.70     48.00    0.5000 10_Year.1            Node2282            
  Node2282#2                 0.64     75.39     45.10    0.1000 10_Year.1            Node2282            
  Node2288#1                 1.53    113.90     40.10    1.9000 10_Year.1            Node2288            
  Node2289#1                 1.49    110.80     32.40    2.0000 10_Year.1            Node2289            
  Node2291#1                 5.31     19.20     50.90    2.9000 10_Year.1            Node2291            
  Node2292#1                 0.56     51.30     46.10    0.3000 10_Year.1            Node2292            
  Node2293#1                 1.25     98.30     37.30    0.5000 10_Year.1            Node2293            
  Node2293#2                 1.00     78.71     35.20    0.1000 10_Year.1            Node2293            
  Node2294#1                 0.54     60.00     47.40    0.5000 10_Year.1            Node2294            
  Node2298#1                 2.31    207.10     41.10    0.5000 10_Year.1            Node2298            
  Node2300#1                 1.54    110.10     37.20    0.5000 10_Year.1            Node2300            
  Node2301#1                 0.85     51.90     42.00    0.2000 10_Year.1            Node2301            
  Node2301#2                 9.60    584.05     36.30    0.2000 10_Year.1            Node2301            
  Node2302#1                 1.08     93.60     44.00    0.5000 10_Year.1            Node2302            
  Node2303#1                 1.03     72.10     58.80    0.5000 10_Year.1            Node2303            
  Node2306#1                 3.41    283.40     51.70    0.5000 10_Year.1            Node2306            
  Node2307#1                 0.59     47.20     40.30    0.5000 10_Year.1            Node2307            
  Node2307#2                 2.63    209.88     35.60    0.5000 10_Year.1            Node2307            
  Node2308#1                 0.61     66.00     55.90    0.9000 10_Year.1            Node2308            
  Node2309#1                 0.95     78.30     44.90    0.2000 10_Year.1            Node2309            
  Node2310#1                 0.65     86.40     38.10    0.5000 10_Year.1            Node2310            
  Node2312#1                 0.80     67.10     43.90    1.0000 10_Year.1            Node2312            
  Node2313#1                 1.19    275.90     39.30    0.5000 10_Year.1            Node2313            
  Node2316#1                 2.30    207.50     39.20    0.5000 10_Year.1            Node2316            
  Node2317#1                 0.41     51.00     41.20    0.5000 10_Year.1            Node2317            
  Node2318#1                 0.59     66.00     44.00    0.5000 10_Year.1            Node2318            
  Node2321#1                 0.92    112.80     33.10    3.2000 10_Year.1            Node2321            
  Node2325#1                 0.36     52.90     45.80    0.5000 10_Year.1            Node2325            
  Node2327#1                 0.34     43.80     42.70    2.2000 10_Year.1            Node2327            
  Node2352#1                 2.48    117.40     29.90    0.1000 10_Year.1            Node2352            
  Node2354#1                 0.43     44.70     40.00    0.5000 10_Year.1            Node2354            
  Node2356#1                 1.29     75.20     52.20    0.5000 10_Year.1            Node2356            
  Node2358#1                 1.65    120.90     53.90    0.5000 10_Year.1            Node2358            
  Node2361#1                 1.65    234.00     26.50    0.5000 10_Year.1            Node2361            
  Node2362#1                 0.86    114.00     56.70    0.5000 10_Year.1            Node2362            
  Node2363#1                 0.50     57.00     42.40    0.7000 10_Year.1            Node2363            
  Node2381#1                 0.78     56.30     59.50    1.5000 10_Year.1            Node2381            
  Node2382#1                 2.53    187.70     52.60    2.7000 10_Year.1            Node2382            
  Node2428#1                 4.62   1039.40     50.50    0.5000 10_Year.1            Node2428            
  Node2429#1                 1.38    119.70     51.20    0.8000 10_Year.1            Node2429            
  Node2436#1                 0.66     62.70     51.40    0.5000 10_Year.1            Node2436            
  Node2436#2                 2.00    191.02     44.10    0.1000 10_Year.1            Node2436            
  Node2441#1                 0.71     54.60     58.40    0.5000 10_Year.1            Node2441            
  Node2456#1                 0.85     72.60     51.50    0.3000 10_Year.1            Node2456            
  Node2471#1                 0.82     69.60     58.80    0.5000 10_Year.1            Node2471            
  Node2475#1                 2.21    176.50     34.70    0.5000 10_Year.1            Node2475            
  Node2485#1                 0.17     21.70     61.30    0.3000 10_Year.1            Node2485            
  Node2497#1                 1.67    103.50     36.90    0.2000 10_Year.1            Node2497            
  Node2497#2                 0.63     38.81     32.90    0.2000 10_Year.1            Node2497            
  Node2503#1                 0.35     61.50     35.60    0.5000 10_Year.1            Node2503            
  Node524#1                  2.04    227.10     37.60    0.5000 10_Year.1            Node524             
  Node524#2                  0.10     11.44     37.40    0.1000 10_Year.1            Node524             
  Node525#1                 14.89     52.90     79.90    0.5000 10_Year.1            Node525             
  Node536#1                  3.85    502.20     50.50    0.5000 10_Year.1            Node536             
  Node539#1                  0.91     70.40     58.80    0.5000 10_Year.1            Node539             
  Node541#1                  7.45     26.90     50.00    0.5000 10_Year.1            Node541             
  Node560#1                  3.30    429.90     34.40    0.5000 10_Year.1            Node560             
  Node562#1                  0.95     88.30     36.00    0.5000 10_Year.1            Node562             
  Node566#1                  4.38    571.60     37.10    0.5000 10_Year.1            Node566             
  Node572#1                  2.48    202.70     50.80    0.5000 10_Year.1            Node572             
  Node574#1                  1.23     69.90     35.50    0.5000 10_Year.1            Node574             
  Node574#2                  1.61     91.68     33.40    0.1000 10_Year.1            Node574             
  Node574#3                  2.01    114.70     32.00    0.1000 10_Year.1            Node574             
  Node589#1                  0.35     40.90     40.40    0.5000 10_Year.1            Node589             
  Node594#1                  3.87    907.70     33.20    0.5000 10_Year.1            Node594             
  Node600#1                  3.10    403.70     36.10    0.5000 10_Year.1            Node600             
  Node603#1                  1.35    112.10     33.80    0.7000 10_Year.1            Node603             
  Node606#1                  1.39    100.90     40.00    0.5000 10_Year.1            Node606             
  Node618#1                  0.34    108.00     53.30    0.5000 10_Year.1            Node618             
  Node650#1                  0.83     69.90     41.10    0.4000 10_Year.1            Node650             
  Node670#1                  7.97     28.80     50.30    0.5000 10_Year.1            Node670             
  Node673#1                  1.63    213.00     51.20    0.5000 10_Year.1            Node673             
  Node684#1                  2.58    364.20     37.70    2.3000 10_Year.1            Node684             
  Node691#1                  0.81    105.10     58.60    0.5000 10_Year.1            Node691             
  Node703#1                  0.38     45.80     53.90    2.4000 10_Year.1            Node703             
  Node706#1                  1.36    150.90     51.20    0.5000 10_Year.1            Node706             
  Node717#1                  5.92     21.40     33.50    0.5000 10_Year.1            Node717             
  Node8000#1                 0.35     41.80     44.00    0.5000 10_Year.1            Node8000            
  Node8001#1                 1.64    198.10     98.00    3.5000 10_Year.1            Node8001            
  Node8002#1                 0.08     15.40     22.60    7.2000 10_Year.1            Node8002            
  Node8005#1                 0.74     78.70     37.50    2.9000 10_Year.1            Node8005            
  Node8006#1                 0.72     76.70     35.80    0.5000 10_Year.1            Node8006            
  Node908#1                  1.01     83.00     30.80    1.2000 10_Year.1            Node908             
  Node908#2                  1.91    157.24     29.30    1.2000 10_Year.1            Node908             
  Node915#1                  4.02    524.10     35.60    0.5000 10_Year.1            Node915             
  Node917#1                  0.63     41.90     54.40    0.8000 10_Year.1            Node917             
  Node9201#1                 4.99     18.20     47.50    0.5000 10_Year.1            Node9201            
  Node921#1                  1.43    125.70     51.20    0.5000 10_Year.1            Node921             
  Node928#1                  0.21     28.60     50.60    0.5000 10_Year.1            Node928             
  Node930#1                  0.29     31.40     54.30    5.6000 10_Year.1            Node930             
  Node932#1                  0.30     34.60     52.20    0.5000 10_Year.1            Node932             
  Node933#1                  0.55     76.40     57.70    4.4000 10_Year.1            Node933             
  Node946#1                  1.31    126.00     42.90    0.5000 10_Year.1            Node946             
  Node946#2                  1.01     97.02     51.20    0.1000 10_Year.1            Node946             
  Node947#1                  6.66     24.10     47.50    0.5000 10_Year.1            Node947             
  Node948#1                  2.29    222.10     32.60    0.5000 10_Year.1            Node948             
  Node951#1                  2.29    329.70     39.30    0.1000 10_Year.1            Node951             
  Node951#2                  0.20     28.28     37.20    0.1000 10_Year.1            Node951             
  Node952#1                  2.15    139.10     30.20    0.2000 10_Year.1            Node952             
  Node953#1                  1.86    197.60     45.70    0.5000 10_Year.1            Node953             
  Node953#2                  0.41     43.58     42.50    0.1000 10_Year.1            Node953             
  Node957#1                  1.52    140.10     42.40    0.1000 10_Year.1            Node957             
  Node6542#1                 2.00    160.32     38.10    0.1000 10_Year.1            Node6542            
  
  
  ************
  Node Summary
  ************
                                           Invert      Max.    Ponded    External
  Name                 Type                 Elev.     Depth      Area    Inflow  
  -------------------------------------------------------------------------------
  DGM_00025            JUNCTION            185.99      2.69       0.0
  DGM_00056            JUNCTION            182.58      3.16       0.0
  DGM_00075            JUNCTION            184.22      3.23       0.0
  DGM_00078            JUNCTION            184.82      2.73       0.0
  DGM_00335            JUNCTION            192.89      5.21       0.0
  DGM_00488            JUNCTION            189.07      5.49       0.0
  DGM_00509            JUNCTION            187.75      5.93       0.0
  DGM_00921            JUNCTION            190.39      3.88       0.0
  DGM_00924            JUNCTION            189.86      4.44       0.0
  DGM_00926            JUNCTION            189.48      4.52       0.0
  DGM_00927            JUNCTION            189.20      4.80       0.0
  DGM_00933            JUNCTION            190.52      5.02       0.0
  DGM_00935            JUNCTION            189.75      4.62       0.0
  DGM_00946            JUNCTION            191.35      3.75       0.0
  DGM_00947            JUNCTION            192.00      3.00       0.0
  DGM_00948            JUNCTION            191.50      3.92       0.0
  DGM_00949            JUNCTION            191.38      3.54       0.0
  DGM_00950            JUNCTION            191.37      3.77       0.0
  DGM_00964            JUNCTION            187.18      4.72       0.0
  DGM_00966            JUNCTION            187.47      3.65       0.0
  DGM_00967            JUNCTION            189.82      4.80       0.0
  DGM_00968            JUNCTION            189.60      4.64       0.0
  DGM_01102            JUNCTION            191.19      3.31       0.0
  DGM_01103            JUNCTION            190.27      4.08       0.0
  DGM_01104            JUNCTION            190.04      4.31       0.0
  DGM_01225            JUNCTION            183.37      2.80       0.0
  DGM_01231            JUNCTION            187.54      5.14       0.0
  DGM_01233            JUNCTION            180.06      2.89       0.0
  DGM_01237            JUNCTION            177.51      4.00       0.0
  DGM_01238            JUNCTION            176.91      5.91       0.0
  DGM_01239            JUNCTION            177.14      5.13       0.0
  DGM_01281            JUNCTION            192.30      4.87       0.0
  DGM_01288            JUNCTION            191.81      3.73       0.0
  DGM_01289            JUNCTION            190.90      4.10       0.0
  DGM_01295            JUNCTION            191.30      3.67       0.0
  DGM_01346            JUNCTION            189.18      4.09       0.0
  DGM_01350            JUNCTION            188.94      1.70       0.0
  DGM_01366            JUNCTION            188.21      4.61       0.0
  DGM_01377            JUNCTION            188.59      3.29       0.0
  DGM_01481            JUNCTION            189.46      4.54       0.0
  DGM_01482            JUNCTION            189.26      3.80       0.0
  DGM_01497            JUNCTION            190.31      1.19       0.0
  DGM_01499            JUNCTION            190.93      3.78       0.0
  DGM_01500            JUNCTION            191.49      2.99       0.0
  DGM_01724            JUNCTION            191.58      2.97       0.0
  DGM_01728            JUNCTION            188.97      4.02       0.0
  DGM_01733            JUNCTION            187.72      4.84       0.0
  DGM_02015            JUNCTION            180.44      3.00       0.0
  DGM_02045            JUNCTION            179.83      2.23       0.0
  DGM_02126            JUNCTION            182.25      3.16       0.0
  DGM_0215             JUNCTION            186.78      6.15       0.0
  DGM_02155            JUNCTION            188.35      3.53       0.0
  DGM_02174            JUNCTION            189.47      4.39       0.0
  DGM_02175            JUNCTION            190.73      3.74       0.0
  DGM_02297            JUNCTION            184.75      5.69       0.0
  DGM_02298            JUNCTION            183.39      5.27       0.0
  DGM_02299            JUNCTION            182.13      5.20       0.0
  DGM_02363            JUNCTION            185.90      2.42       0.0
  DGM_02375            JUNCTION            189.26      1.56       0.0
  DGM_02439            JUNCTION            188.71      3.83       0.0
  DGM_02488            JUNCTION            188.30      5.53       0.0
  DGM_02681            JUNCTION            178.05      4.95       0.0
  DGM_03125            JUNCTION            184.14      2.74       0.0
  DGM_03126            JUNCTION            182.13      4.24       0.0
  DGM_03127            JUNCTION            182.02      3.62       0.0
  DGM_03128            JUNCTION            179.98      2.44       0.0
  DGM_03132            JUNCTION            179.27      3.51       0.0
  DGM_03136            JUNCTION            186.64      2.49       0.0
  DGM_03138            JUNCTION            186.41      6.19       0.0
  DGM_03149            JUNCTION            185.33      2.51       0.0
  DGM_03150            JUNCTION            187.12      2.12       0.0
  DGM_03153            JUNCTION            183.40      3.44       0.0
  DGM_03158            JUNCTION            177.78      4.54       0.0
  DGM_03168            JUNCTION            182.60      4.04       0.0
  DGM_03170            JUNCTION            185.00      3.21       0.0
  DGM_03172            JUNCTION            184.44      7.17       0.0
  DGM_03174            JUNCTION            181.84      3.14       0.0
  DGM_03176            JUNCTION            184.08      3.92       0.0
  DGM_03177            JUNCTION            180.85      3.95       0.0
  DGM_03178            JUNCTION            181.68      4.47       0.0
  DGM_03180            JUNCTION            175.35      6.25       0.0
  DGM_03184            JUNCTION            178.90      4.01       0.0
  DGM_03405            JUNCTION            179.06      4.02       0.0
  DGM_03418            JUNCTION            188.05      5.45       0.0
  DGM_03423            JUNCTION            186.61      2.84       0.0
  DGM_03434            JUNCTION            185.63      7.01       0.0
  DGM_03439            JUNCTION            189.19      4.82       0.0
  DGM_03440            JUNCTION            189.04      4.96       0.0
  DGM_03447            JUNCTION            186.43      3.25       0.0
  DGM_03448            JUNCTION            185.23      2.55       0.0
  DGM_03506            JUNCTION            180.84      2.89       0.0
  DGM_03507            JUNCTION            181.23      3.91       0.0
  DGM_03531            JUNCTION            182.75      3.18       0.0
  DGM_03532            JUNCTION            181.53      3.85       0.0
  DGM_03926            JUNCTION            184.00      2.81       0.0
  DGM_03927            JUNCTION            185.04      1.99       0.0
  DGM_03933            JUNCTION            185.85      2.65       0.0
  DGM_03934            JUNCTION            185.75      2.13       0.0
  DGM_03935            JUNCTION            185.66      1.98       0.0
  DGM_03936            JUNCTION            185.42      2.26       0.0
  DGM_03942            JUNCTION            185.78      1.96       0.0
  DGM_03943            JUNCTION            185.15      1.82       0.0
  DGM_03970            JUNCTION            185.94      2.30       0.0
  DGM_03972            JUNCTION            186.26      2.74       0.0
  DGM_03981            JUNCTION            187.63      2.50       0.0
  DGM_03982            JUNCTION            186.90      2.47       0.0
  DGM_03983            JUNCTION            186.60      2.96       0.0
  DGM_03991            JUNCTION            189.66      2.34       0.0
  DGM_03992            JUNCTION            189.40      3.13       0.0
  DGM_03993            JUNCTION            189.10      3.26       0.0
  DGM_04001            JUNCTION            188.69      3.06       0.0
  DGM_04002            JUNCTION            188.30      3.00       0.0
  DGM_04003            JUNCTION            187.33      3.50       0.0
  DGM_04008            JUNCTION            186.82      3.39       0.0
  DGM_04018            JUNCTION            187.65      4.29       0.0
  DGM_04019            JUNCTION            187.12      5.24       0.0
  DGM_04020            JUNCTION            186.95      5.05       0.0
  DGM_04024            JUNCTION            186.00      6.00       0.0
  DGM_04026            JUNCTION            187.91      5.49       0.0
  DGM_04027            JUNCTION            187.60      6.18       0.0
  DGM_04028            JUNCTION            187.45      6.05       0.0
  DGM_04029            JUNCTION            187.18      5.96       0.0
  DGM_04030            JUNCTION            185.94      5.99       0.0
  DGM_04031            JUNCTION            185.76      5.07       0.0
  DGM_04032            JUNCTION            185.55      4.43       0.0
  DGM_04043            JUNCTION            188.63      4.17       0.0
  DGM_04044            JUNCTION            188.10      5.30       0.0
  DGM_04068            JUNCTION            188.73      5.94       0.0
  DGM_04069            JUNCTION            188.46      5.56       0.0
  DGM_04070            JUNCTION            188.32      4.68       0.0
  DGM_04071            JUNCTION            187.37      4.63       0.0
  DGM_04072            JUNCTION            187.26      4.74       0.0
  DGM_04081            JUNCTION            190.00      3.76       0.0
  DGM_04101            JUNCTION            189.10      2.44       0.0
  DGM_04102            JUNCTION            189.15      3.13       0.0
  DGM_04104            JUNCTION            189.50      3.83       0.0
  DGM_04105            JUNCTION            189.84      3.52       0.0
  DGM_04106            JUNCTION            190.00      3.68       0.0
  DGM_04108            JUNCTION            190.22      3.08       0.0
  DGM_04109            JUNCTION            190.36      2.78       0.0
  DGM_04110            JUNCTION            190.38      2.80       0.0
  DGM_04111            JUNCTION            190.49      3.10       0.0
  DGM_04112            JUNCTION            190.59      3.39       0.0
  DGM_04113            JUNCTION            190.63      3.38       0.0
  DGM_04116            JUNCTION            190.63      3.42       0.0
  DGM_04121            JUNCTION            188.90      3.48       0.0
  DGM_04122            JUNCTION            188.41      3.29       0.0
  DGM_04123            JUNCTION            188.10      4.08       0.0
  DGM_04129            JUNCTION            188.05      5.95       0.0
  DGM_04135            JUNCTION            190.76      2.88       0.0
  DGM_04136            JUNCTION            192.02      2.44       0.0
  DGM_04137            JUNCTION            191.16      3.04       0.0
  DGM_04141            JUNCTION            190.44      2.82       0.0
  DGM_04142            JUNCTION            190.79      2.25       0.0
  DGM_04145            JUNCTION            188.46      5.34       0.0
  DGM_04146            JUNCTION            188.60      5.79       0.0
  DGM_04162            JUNCTION            191.35      4.18       0.0
  DGM_04163            JUNCTION            190.79      3.84       0.0
  DGM_04165            JUNCTION            190.67      4.18       0.0
  DGM_04167            JUNCTION            188.79      5.67       0.0
  DGM_04168            JUNCTION            188.84      5.31       0.0
  DGM_04169            JUNCTION            189.11      5.36       0.0
  DGM_04170            JUNCTION            189.16      5.06       0.0
  DGM_04171            JUNCTION            189.69      4.16       0.0
  DGM_04172            JUNCTION            189.81      4.28       0.0
  DGM_04173            JUNCTION            190.08      3.93       0.0
  DGM_04174            JUNCTION            190.10      4.06       0.0
  DGM_04178            JUNCTION            189.71      4.30       0.0
  DGM_04179            JUNCTION            190.14      3.71       0.0
  DGM_04180            JUNCTION            190.35      3.96       0.0
  DGM_04181            JUNCTION            190.63      3.77       0.0
  DGM_04187            JUNCTION            191.75      3.61       0.0
  DGM_04188            JUNCTION            191.10      3.53       0.0
  DGM_04189            JUNCTION            190.32      4.14       0.0
  DGM_04191            JUNCTION            191.33      2.83       0.0
  DGM_04192            JUNCTION            190.75      3.87       0.0
  DGM_04198            JUNCTION            192.48      3.74       0.0
  DGM_04199            JUNCTION            192.21      3.48       0.0
  DGM_04200            JUNCTION            192.09      3.47       0.0
  DGM_04201            JUNCTION            191.23      4.39       0.0
  DGM_04207            JUNCTION            193.27      2.19       0.0
  DGM_04210            JUNCTION            192.98      2.02       0.0
  DGM_04211            JUNCTION            192.77      2.38       0.0
  DGM_04215            JUNCTION            192.62      2.33       0.0
  DGM_04216            JUNCTION            192.33      2.40       0.0
  DGM_04222            JUNCTION            189.12      4.07       0.0
  DGM_04223            JUNCTION            189.89      5.18       0.0
  DGM_04234            JUNCTION            189.92      5.08       0.0
  DGM_04238            JUNCTION            190.20      1.13       0.0
  DGM_04239            JUNCTION            190.16      1.12       0.0
  DGM_04241            JUNCTION            189.73      4.35       0.0
  DGM_04242            JUNCTION            189.29      3.91       0.0
  DGM_04243            JUNCTION            189.45      3.80       0.0
  DGM_04251            JUNCTION            189.84      1.17       0.0
  DGM_04262            JUNCTION            192.58      2.44       0.0
  DGM_04266            JUNCTION            192.78      2.31       0.0
  DGM_04273            JUNCTION            190.67      4.98       0.0
  DGM_04274            JUNCTION            172.43      4.57       0.0
  DGM_04275            JUNCTION            173.86      3.14       0.0
  DGM_04276            JUNCTION            174.23      2.77       0.0
  DGM_04285            JUNCTION            174.04      1.44       0.0
  DGM_04289            JUNCTION            174.34      2.46       0.0
  DGM_04303            JUNCTION            183.37      3.33       0.0
  DGM_04304            JUNCTION            185.87      3.33       0.0
  DGM_04319            JUNCTION            196.80      3.20       0.0
  DGM_04331            JUNCTION            179.18      6.82       0.0
  DGM_04341            JUNCTION            177.38      8.62       0.0
  DGM_04342            JUNCTION            176.38      9.62       0.0
  DGM_04343            JUNCTION            175.47     10.53       0.0
  DGM_04348            JUNCTION            194.27      2.60       0.0
  DGM_04349            JUNCTION            193.80      3.19       0.0
  DGM_04350            JUNCTION            194.17      2.72       0.0
  DGM_04351            JUNCTION            194.96      2.25       0.0
  DGM_04352            JUNCTION            193.98      3.05       0.0
  DGM_04354            JUNCTION            193.57      5.33       0.0
  DGM_04355            JUNCTION            192.22      3.78       0.0
  DGM_04357            JUNCTION            188.35      5.04       0.0
  DGM_04365            JUNCTION            190.35      3.90       0.0
  DGM_04366            JUNCTION            188.92      3.43       0.0
  DGM_04367            JUNCTION            187.65      3.44       0.0
  DGM_04381            JUNCTION            188.86      5.34       0.0
  DGM_04382            JUNCTION            188.53      5.76       0.0
  DGM_04384            JUNCTION            188.48      6.08       0.0
  DGM_04386            JUNCTION            187.96      6.30       0.0
  DGM_04389            JUNCTION            187.42      6.28       0.0
  DGM_04392            JUNCTION            190.78      4.33       0.0
  DGM_04393            JUNCTION            189.47      5.65       0.0
  DGM_04395            JUNCTION            189.18      5.83       0.0
  DGM_04398            JUNCTION            188.41      5.92       0.0
  DGM_04399            JUNCTION            188.99      5.01       0.0
  DGM_04442            JUNCTION            184.54      1.60       0.0
  DGM_04458            JUNCTION            185.03      2.44       0.0
  DGM_04463            JUNCTION            184.45      3.50       0.0
  DGM_04604            JUNCTION            193.64      3.48       0.0
  DGM_04674            JUNCTION            192.24      1.43       0.0
  DGM_04675            JUNCTION            191.63      1.77       0.0
  DGM_04682            JUNCTION            190.00      5.03       0.0
  DGM_04683            JUNCTION            189.65      3.43       0.0
  DGM_04686            JUNCTION            188.41      3.30       0.0
  DGM_04689            JUNCTION            188.82      2.18       0.0
  DGM_04690            JUNCTION            189.03      3.69       0.0
  DGM_04694            JUNCTION            188.49      5.64       0.0
  Node1030             JUNCTION            177.51      3.99       0.0
  Node1031             JUNCTION            175.74      5.46       0.0
  Node1045             JUNCTION            187.07      5.83       0.0
  Node1049             JUNCTION            178.26      3.74       0.0
  Node1301             JUNCTION            181.14      2.84       0.0
  Node1360             JUNCTION            181.08      2.92       0.0
  Node1507             JUNCTION            192.25      2.75       0.0
  Node1510             JUNCTION            190.36      1.64       0.0
  Node1512             JUNCTION            190.50      1.50       0.0
  Node1545             JUNCTION            189.00      2.00       0.0
  Node1573             JUNCTION            176.32      5.18       0.0
  Node1677             JUNCTION            191.34      3.12       0.0
  Node1865             JUNCTION            190.01      0.99       0.0
  Node1866             JUNCTION            189.60      4.17       0.0
  Node1867             JUNCTION            190.00      3.71       0.0
  Node1868             JUNCTION            190.40      3.60       0.0
  Node2266             JUNCTION            188.49      2.51       0.0
  Node2267             JUNCTION            189.37      4.63       0.0
  Node2268             JUNCTION            190.50      4.50       0.0
  Node2269             JUNCTION            192.02      1.98       0.0
  Node2281             JUNCTION            185.67      2.33       0.0
  Node2282             JUNCTION            184.86      2.93       0.0
  Node2284             JUNCTION            181.86      2.14       0.0
  Node2285             JUNCTION            183.97      2.03       0.0
  Node2288             JUNCTION            188.84      4.16       0.0
  Node2289             JUNCTION            190.25      2.76       0.0
  Node2290             JUNCTION            189.84      4.16       0.0
  Node2291             JUNCTION            190.02      2.98       0.0
  Node2292             JUNCTION            194.44      2.56       0.0
  Node2293             JUNCTION            196.50      3.50       0.0
  Node2294             JUNCTION            189.50     10.50       0.0
  Node2295             JUNCTION            188.80     11.20       0.0
  Node2296             JUNCTION            176.40      7.40       0.0
  Node2298             JUNCTION            193.00      2.00       0.0
  Node2299             JUNCTION            191.60      2.90       0.0
  Node2300             JUNCTION            190.32      4.68       0.0
  Node2301             JUNCTION            190.12      4.65       0.0
  Node2302             JUNCTION            190.36      4.51       0.0
  Node2303             JUNCTION            190.04      5.06       0.0
  Node2304             JUNCTION            190.50      4.36       0.0
  Node2305             JUNCTION            189.53      3.72       0.0
  Node2306             JUNCTION            190.45      4.55       0.0
  Node2307             JUNCTION            193.10      1.90       0.0
  Node2308             JUNCTION            192.25      3.35       0.0
  Node2309             JUNCTION            191.03      2.97       0.0
  Node2310             JUNCTION            190.98      3.42       0.0
  Node2312             JUNCTION            190.98      3.62       0.0
  Node2313             JUNCTION            191.00      3.40       0.0
  Node2314             JUNCTION            191.06      1.94       0.0
  Node2315             JUNCTION            191.69      1.31       0.0
  Node2316             JUNCTION            187.76      5.24       0.0
  Node2317             JUNCTION            188.75      3.35       0.0
  Node2318             JUNCTION            191.43      2.57       0.0
  Node2321             JUNCTION            189.56      2.44       0.0
  Node2322             JUNCTION            188.53      3.47       0.0
  Node2323             JUNCTION            188.29      3.71       0.0
  Node2325             JUNCTION            187.30      4.70       0.0
  Node2326             JUNCTION            189.53      2.48       0.0
  Node2327             JUNCTION            187.26      1.74       0.0
  Node2352             JUNCTION            178.45      5.55       0.0
  Node2354             JUNCTION            180.28      1.72       0.0
  Node2355             JUNCTION            178.06      4.94       0.0
  Node2356             JUNCTION            181.50      1.60       0.0
  Node2357             JUNCTION            180.19      3.23       0.0
  Node2358             JUNCTION            183.58      4.42       0.0
  Node2361             JUNCTION            179.24      2.76       0.0
  Node2362             JUNCTION            186.83      2.17       0.0
  Node2363             JUNCTION            182.07      2.93       0.0
  Node2381             JUNCTION            185.52      1.48       0.0
  Node2382             JUNCTION            186.89      3.11       0.0
  Node2428             JUNCTION            181.12      2.87       0.0
  Node2429             JUNCTION            185.94      6.06       0.0
  Node2436             JUNCTION            188.91      5.32       0.0
  Node2441             JUNCTION            180.87      3.32       0.0
  Node2456             JUNCTION            187.17      5.12       0.0
  Node2471             JUNCTION            191.89      3.11       0.0
  Node2472             JUNCTION            190.34      1.66       0.0
  Node2473             JUNCTION            190.40      1.60       0.0
  Node2475             JUNCTION            189.66      4.65       0.0
  Node2485             JUNCTION            192.02      4.98       0.0
  Node2497             JUNCTION            190.64      3.56       0.0
  Node2502             JUNCTION            191.46      3.86       0.0
  Node2503             JUNCTION            191.25      3.18       0.0
  Node447              JUNCTION            188.57      2.43       0.0
  Node450              JUNCTION            189.43      4.57       0.0
  Node524              JUNCTION            185.32      2.68       0.0
  Node525              JUNCTION            186.25      1.75       0.0
  Node526              JUNCTION            184.50      3.50       0.0
  Node536              JUNCTION            182.48      3.02       0.0
  Node539              JUNCTION            183.08      4.92       0.0
  Node541              JUNCTION            183.70      2.30       0.0
  Node560              JUNCTION            191.59      2.41       0.0
  Node562              JUNCTION            187.83      5.17       0.0
  Node566              JUNCTION            188.06      4.94       0.0
  Node572              JUNCTION            188.97      5.03       0.0
  Node574              JUNCTION            186.38      3.62       0.0
  Node586              JUNCTION            196.80      3.20       0.0
  Node589              JUNCTION            193.09      6.91       0.0
  Node594              JUNCTION            180.34      3.55       0.0
  Node600              JUNCTION            193.34      1.66       0.0
  Node603              JUNCTION            192.28      2.72       0.0
  Node606              JUNCTION            191.40      3.60       0.0
  Node613              JUNCTION            189.98      1.02       0.0
  Node616              JUNCTION            189.02      1.98       0.0
  Node618              JUNCTION            188.77      2.23       0.0
  Node650              JUNCTION            191.27      3.13       0.0
  Node670              JUNCTION            191.32      3.08       0.0
  Node673              JUNCTION            191.11      1.89       0.0
  Node684              JUNCTION            187.99      5.01       0.0
  Node691              JUNCTION            191.45      2.55       0.0
  Node703              JUNCTION            189.27      2.73       0.0
  Node706              JUNCTION            189.00      3.00       0.0
  Node717              JUNCTION            188.00      4.00       0.0
  Node8000             JUNCTION            180.35      4.17       0.0
  Node8001             JUNCTION            186.70      5.24       0.0
  Node8005             JUNCTION            186.20      5.90       0.0
  Node8006             JUNCTION            186.00      5.93       0.0
  Node8010             JUNCTION            180.04      2.96       0.0
  Node8011             JUNCTION            189.15      2.02       0.0
  Node8012             JUNCTION            189.07      1.93       0.0
  Node8290             JUNCTION            191.30      3.55       0.0
  Node908              JUNCTION            178.82      5.42       0.0
  Node915              JUNCTION            180.71      1.29       0.0
  Node917              JUNCTION            178.06      4.94       0.0
  Node9201             JUNCTION            174.75      6.85       0.0
  Node921              JUNCTION            182.80      2.20       0.0
  Node928              JUNCTION            180.39      3.03       0.0
  Node930              JUNCTION            184.10      3.90       0.0
  Node932              JUNCTION            182.67      5.33       0.0
  Node933              JUNCTION            181.97      4.03       0.0
  Node946              JUNCTION            180.16      3.84       0.0
  Node947              JUNCTION            179.80      4.20       0.0
  Node948              JUNCTION            179.35      2.65       0.0
  Node951              JUNCTION            182.41      3.29       0.0
  Node952              JUNCTION            183.76      4.24       0.0
  Node953              JUNCTION            181.82      4.08       0.0
  Node957              JUNCTION            179.62      2.38       0.0
  OV#27                JUNCTION            175.35      6.25       0.0
  Node6504             JUNCTION            186.00      2.90       0.0
  Node6505             JUNCTION            186.00      3.00       0.0
  Node6506             JUNCTION            186.00      3.00       0.0
  Node6507             JUNCTION            186.00      3.00       0.0
  Node6508             JUNCTION            184.50      2.29       0.0
  Node6542             JUNCTION            185.00      2.09       0.0
  DDP_002!             OUTFALL             172.80      0.60       0.0
  DDP002OVF            OUTFALL             172.80      0.60       0.0
  DGM_03925            OUTFALL             184.21      1.05       0.0
  DGM_04009            OUTFALL             186.14      0.75       0.0
  DGM_04033            OUTFALL             185.50      1.20       0.0
  DGM_04073            OUTFALL             186.97      0.90       0.0
  DGM_04124            OUTFALL             186.00      2.13       0.0
  DGM_042733           OUTFALL             173.80      0.75       0.0
  DGM_043444           OUTFALL             174.36      0.82       0.0
  Node718              OUTFALL             187.50      0.60       0.0
  Node8002             OUTFALL             187.00      1.63       0.0
  Node8003             OUTFALL             189.00      0.82       0.0
  Node8014             OUTFALL             188.32      1.80       0.0
  Node920              OUTFALL             173.98      2.13       0.0
  DDP_002              STORAGE             172.50      3.33       0.0
  
  
  ************
  Link Summary
  ************
  Name             From Node        To Node          Type            Length    %Slope Roughness
  ---------------------------------------------------------------------------------------------
  DDP_002.1        DDP_002          DDP_002!         CONDUIT           24.6    2.1957    0.0130
  DGM_00025.1      DGM_00025        Node2381         CONDUIT          111.9    0.4220    0.0130
  DGM_00056.1      DGM_00056        Node951          CONDUIT           42.5    0.4071    0.0130
  DGM_00075.1      DGM_00075        DGM_03153        CONDUIT           94.4    0.8716    0.0130
  DGM_00078.1      DGM_00078        DGM_00075        CONDUIT           97.7    0.6183    0.0130
  DGM_00335.1      DGM_00335        DGM_04355        CONDUIT          170.7    0.3868    0.0130
  DGM_00488.1      DGM_00488        DGM_04690        CONDUIT           19.8    0.1969    0.0130
  DGM_00509.1      DGM_00509        DGM_04027        CONDUIT           41.7    0.2398    0.0130
  DGM_00921.1      DGM_00921        DGM_00924        CONDUIT           54.8    0.6841    0.0130
  DGM_00924.1      DGM_00924        DGM_00926        CONDUIT           80.3    0.4747    0.0130
  DGM_00926.1      DGM_00926        DGM_00927        CONDUIT           59.0    0.4680    0.0130
  DGM_00927.1      DGM_00927        Node572          CONDUIT           95.8    0.2359    0.0130
  DGM_00933.1      DGM_00933        DGM_00924        CONDUIT          127.7    0.4677    0.0130
  DGM_00935.1      DGM_00935        DGM_04381        CONDUIT           89.6    0.9275    0.0130
  DGM_00946.1      DGM_00946        DGM_01295        CONDUIT           80.1    0.0125    0.0130
  DGM_00947.1      DGM_00947        DGM_00946        CONDUIT           17.6    0.0017    0.0130
  DGM_00948.1      DGM_00948        Node2502         CONDUIT           10.0    0.2500    0.0130
  DGM_00949.1      DGM_00949        DGM_00950        CONDUIT           51.6    0.1939    0.0130
  DGM_00950.1      DGM_00950        DGM_00946        CONDUIT           16.5    0.0605    0.0130
  DGM_00964.1      DGM_00964        Node1045         CONDUIT           42.4    0.2618    0.0130
  DGM_00966.1      DGM_00966        DGM_00964        CONDUIT          150.1    0.2353    0.0130
  DGM_00967.1      DGM_00967        DGM_00968        CONDUIT          111.0    0.2001    0.0130
  DGM_00968.1      DGM_00968        DGM_03439        CONDUIT          140.6    0.1998    0.0130
  DGM_01102.1      DGM_01102        Node2497         CONDUIT          134.5    0.3502    0.0130
  DGM_01103.1      DGM_01103        DGM_01104        CONDUIT           11.3   -0.3375    0.0130
  DGM_01104.1      DGM_01104        DGM_00967        CONDUIT          112.1    0.1998    0.0130
  DGM_01225.1      DGM_01225        Node921          CONDUIT          164.2    0.4142    0.0130
  DGM_01231.1      DGM_01231        Node2429         CONDUIT           88.1    1.4174    0.0130
  DGM_01237.1      DGM_01237        DGM_01239        CONDUIT          118.3    0.3061    0.0130
  DGM_01238.1      DGM_01238        Node1573         CONDUIT          198.1    0.2938    0.0130
  DGM_01239.1      DGM_01239        DGM_01238        CONDUIT           80.9    0.2943    0.0130
  DGM_01281.1      DGM_01281        Node2485         CONDUIT           52.3    0.2522    0.0130
  DGM_01288.1      DGM_01288        DGM_01289        CONDUIT           53.9    1.6981    0.0130
  DGM_01289.1      DGM_01289        DGM_00933        CONDUIT           64.7    0.5410    0.0130
  DGM_01295.1      DGM_01295        Node8290         CONDUIT           34.0    0.0009    0.0130
  DGM_01346.1      DGM_01346        DGM_01728        CONDUIT          128.1    0.1663    0.0130
  DGM_01350.1      DGM_01350        Node618          CONDUIT            4.5    3.8387    0.0130
  DGM_01366.1      DGM_01366        DGM_04129        CONDUIT           44.8    0.1406    0.0130
  DGM_01377.1      DGM_01377        DGM_02155        CONDUIT           93.0    0.2591    0.0130
  DGM_01481.1      DGM_01481        DGM_01482        CONDUIT          120.1    0.1706    0.0130
  DGM_01482.1      DGM_01482        DGM_01346        CONDUIT           44.8    0.1628    0.0130
  DGM_01497.1      DGM_01497        DGM_04238        CONDUIT           57.9    0.1796    0.0130
  DGM_01499.1      DGM_01499        DGM_04273        CONDUIT          100.2    0.2285    0.0130
  DGM_01500.1      DGM_01500        DGM_01499        CONDUIT           66.2    0.3460    0.0130
  DGM_01724.1      DGM_01724        Node606          CONDUIT          111.4    0.1670    0.0130
  DGM_01728.1      DGM_01728        DGM_02439        CONDUIT           95.6    0.2677    0.0130
  DGM_01733.1      DGM_01733        Node2456         CONDUIT           90.1    0.3551    0.0130
  DGM_02015.1      DGM_02015        Node946          CONDUIT           77.1    0.3010    0.0130
  DGM_02045.1      DGM_02045        Node957          CONDUIT           81.5    0.2614    0.0130
  DGM_02126.1      DGM_02126        Node2363         CONDUIT           60.5    0.3026    0.0130
  DGM_0215.1       DGM_0215         Node8001         CONDUIT           55.8    0.1505    0.0130
  DGM_02155.1      DGM_02155        DGM_01733        CONDUIT           66.5    0.2556    0.0130
  DGM_02174.1      DGM_02174        DGM_04222        CONDUIT          136.4    0.2530    0.0130
  DGM_02175.1      DGM_02175        Node2306         CONDUIT           93.4    0.2453    0.0130
  DGM_02297.1      DGM_02297        DGM_02298        CONDUIT           87.7    1.5465    0.0130
  DGM_02298.1      DGM_02298        DGM_02299        CONDUIT           94.5    1.5808    0.0130
  DGM_02299.1      DGM_02299        DGM_03178        CONDUIT           92.8    0.4793    0.0130
  DGM_02363.1      DGM_02363        Node2281         CONDUIT           44.8    0.3794    0.0130
  DGM_02375.1      DGM_02375        Node1545         CONDUIT           26.7    0.6864    0.0130
  DGM_02439.1      DGM_02439        DGM_01377        CONDUIT           93.2    0.1277    0.0130
  DGM_02488.1      DGM_02488        DGM_01366        CONDUIT           58.7    0.1398    0.0130
  DGM_02681.1      DGM_02681        DGM_03158        CONDUIT          106.4    0.2547    0.0130
  DGM_03125.1      DGM_03125        DGM_03168        CONDUIT           84.0    1.0962    0.0130
  DGM_03126.1      DGM_03126        DGM_03127        CONDUIT           22.3    0.5076    0.0130
  DGM_03127.1      DGM_03127        DGM_03532        CONDUIT           87.7    0.4162    0.0130
  DGM_03128.1      DGM_03128        DGM_02045        CONDUIT           44.4    0.3423    0.0130
  DGM_03132.1      DGM_03132        Node1049         CONDUIT           78.5    1.0560    0.0130
  DGM_03136.1      DGM_03136        Node574          CONDUIT          148.7    0.1769    0.0130
  DGM_03138.1      DGM_03138        DGM_03434        CONDUIT           54.4    1.2439    0.0130
  DGM_03149.1      DGM_03149        DGM_00078        CONDUIT           84.5    0.5987    0.0130
  DGM_03150.1      DGM_03150        Node2362         CONDUIT           48.4    0.4296    0.0130
  DGM_03153.1      DGM_03153        DGM_01225        CONDUIT           10.5    0.2849    0.0130
  DGM_03158.1      DGM_03158        DGM_01237        CONDUIT           89.3    0.3047    0.0130
  DGM_03168.1      DGM_03168        DGM_03531        CONDUIT           29.2   -0.5105    0.0130
  DGM_03170.1      DGM_03170        Node952          CONDUIT          127.8    0.9730    0.0130
  DGM_03172.1      DGM_03172        Node930          CONDUIT           64.4    0.4688    0.0130
  DGM_03174.1      DGM_03174        Node1360         CONDUIT          112.8    0.6755    0.0130
  DGM_03176.1      DGM_03176        DGM_01225        CONDUIT          188.5    0.3628    0.0130
  DGM_03177.1      DGM_03177        DGM_03506        CONDUIT           22.7    0.0793    0.0130
  DGM_03178.1      DGM_03178        DGM_03507        CONDUIT           57.8    0.5484    0.0130
  DGM_03180.1      DGM_03180        Node9201         CONDUIT          128.8    0.4634    0.0130
  DGM_03184.1      DGM_03184        DGM_03158        CONDUIT           86.4    0.2742    0.0130
  DGM_03405.1      DGM_03405        DGM_03184        CONDUIT           54.6    0.3078    0.0130
  DGM_03418.1      DGM_03418        DGM_04389        CONDUIT           94.5    0.5843    0.0130
  DGM_03423.1      DGM_03423        DGM_03447        CONDUIT           40.0    0.4647    0.0130
  DGM_03434.1      DGM_03434        DGM_03172        CONDUIT           76.1    0.5442    0.0130
  DGM_03439.1      DGM_03439        DGM_00966        CONDUIT          124.8    0.6160    0.0130
  DGM_03440.1      DGM_03440        DGM_04399        CONDUIT            6.6    0.9064    0.0130
  DGM_03447.1      DGM_03447        DGM_03448        CONDUIT          100.7    1.1893    0.0130
  DGM_03448.1      DGM_03448        DGM_00078        CONDUIT           23.2    1.0786    0.0130
  DGM_03506.1      DGM_03506        Node928          CONDUIT           45.8    1.0449    0.0130
  DGM_03507.1      DGM_03507        DGM_03177        CONDUIT          130.4    0.2922    0.0130
  DGM_03531.1      DGM_03531        DGM_00056        CONDUIT           41.1    0.4083    0.0130
  DGM_03532.1      DGM_03532        Node908          CONDUIT           94.8    0.5498    0.0130
  DGM_03926.1      DGM_03926        DGM_03925        CONDUIT           62.0    0.9707    0.0130
  DGM_03927.1      DGM_03927        DGM_03926        CONDUIT           22.3    1.0404    0.0130
  DGM_03933.1      DGM_03933        DGM_03934        CONDUIT           48.0    0.2104    0.0130
  DGM_03934.1      DGM_03934        DGM_03935        CONDUIT           42.7    0.2084    0.0130
  DGM_03935.1      DGM_03935        DGM_03936        CONDUIT           93.7    0.2594    0.0130
  DGM_03936.1      DGM_03936        DGM_03943        CONDUIT           74.4    0.3603    0.0130
  DGM_03942.1      DGM_03942        DGM_03936        CONDUIT           28.7    0.3275    0.0130
  DGM_03943.1      DGM_03943        DGM_03927        CONDUIT           50.4    0.2083    0.0130
  DGM_03970.1      DGM_03970        DGM_03933        CONDUIT           36.1    0.1910    0.0130
  DGM_03972.1      DGM_03972        DGM_03970        CONDUIT          104.4    0.2567    0.0130
  DGM_03981.1      DGM_03981        Node2327         CONDUIT           51.8    0.7140    0.0130
  DGM_03982.1      DGM_03982        DGM_03983        CONDUIT           54.2    0.3912    0.0130
  DGM_03983.1      DGM_03983        DGM_03972        CONDUIT           82.6    0.2880    0.0130
  DGM_03991.1      DGM_03991        Node2326         CONDUIT           30.8    0.2987    0.0130
  DGM_03992.1      DGM_03992        DGM_03993        CONDUIT           41.2    0.3571    0.0130
  DGM_03993.1      DGM_03993        DGM_04001        CONDUIT           45.6    0.8685    0.0130
  DGM_04001.1      DGM_04001        DGM_04002        CONDUIT           40.4    0.8722    0.0130
  DGM_04002.1      DGM_04002        DGM_04003        CONDUIT           48.6    0.8972    0.0130
  DGM_04003.1      DGM_04003        DGM_04008        CONDUIT           57.9    0.8832    0.0130
  DGM_04008.1      DGM_04008        DGM_04009        CONDUIT           22.2    3.0972    0.0130
  DGM_04018.1      DGM_04018        Node2325         CONDUIT           40.9    0.5018    0.0130
  DGM_04019.1      DGM_04019        DGM_04020        CONDUIT           97.8    0.1780    0.0130
  DGM_04020.1      DGM_04020        Node8005         CONDUIT           67.9    1.0996    0.0130
  DGM_04024.1      DGM_04024        DGM_04030        CONDUIT           51.9    0.1119    0.0130
  DGM_04026.1      DGM_04026        DGM_00509        CONDUIT           42.9    0.2517    0.0130
  DGM_04027.1      DGM_04027        DGM_04028        CONDUIT           40.0    0.2575    0.0130
  DGM_04028.1      DGM_04028        DGM_04029        CONDUIT           47.3    0.2537    0.0130
  DGM_04029.1      DGM_04029        DGM_04030        CONDUIT           80.8    0.3947    0.0130
  DGM_04030.1      DGM_04030        DGM_04031        CONDUIT           51.0    0.2647    0.0130
  DGM_04031.1      DGM_04031        DGM_04032        CONDUIT           46.6    0.2853    0.0130
  DGM_04032.1      DGM_04032        DGM_04033        CONDUIT           21.5    0.2279    0.0130
  DGM_04043.1      DGM_04043        Node2323         CONDUIT           86.7    0.3000    0.0130
  DGM_04044.1      DGM_04044        DGM_04026        CONDUIT           71.0    0.2014    0.0130
  DGM_04068.1      DGM_04068        Node2322         CONDUIT           69.8    0.2837    0.0130
  DGM_04069.1      DGM_04069        DGM_04070        CONDUIT           69.3    0.2280    0.0130
  DGM_04070.1      DGM_04070        DGM_04071        CONDUIT           55.0    1.8744    0.0130
  DGM_04071.1      DGM_04071        DGM_04072        CONDUIT           61.5    0.1626    0.0130
  DGM_04072.1      DGM_04072        DGM_04073        CONDUIT           15.5    1.8665    0.0130
  DGM_04081.1      DGM_04081        Node2321         CONDUIT           54.3    0.7812    0.0130
  DGM_04101.1      DGM_04101        Node706          CONDUIT           63.3    0.1580    0.0130
  DGM_04102.1      DGM_04102        DGM_04101        CONDUIT           59.0    0.0780    0.0130
  DGM_04104.1      DGM_04104        Node703          CONDUIT           55.5    0.4090    0.0130
  DGM_04105.1      DGM_04105        DGM_04104        CONDUIT           84.1    0.4056    0.0130
[...]
  Node447.1               1.00   0.02  0.00  0.00  0.98  0.00  0.00  0.00  0.00  0.00
  Node450.1               1.00   0.00  0.00  0.00  1.00  0.00  0.00  0.00  0.00  0.00
  Node524.1               1.00   0.00  0.00  0.00  1.00  0.00  0.00  0.00  0.99  0.00
  Node525.1               1.00   0.00  0.00  0.00  0.00  0.33  0.00  0.67  0.18  0.00
  Node526.1               1.00   0.00  0.00  0.00  0.12  0.00  0.00  0.88  0.01  0.00
  Node536.1               1.00   0.00  0.00  0.00  0.64  0.36  0.00  0.00  0.20  0.00
  Node539.1               1.00   0.00  0.00  0.00  0.07  0.93  0.00  0.00  0.84  0.00
  Node541.1               1.00   0.00  0.00  0.00  1.00  0.00  0.00  0.00  0.99  0.00
  Node560.1               1.00   0.00  0.00  0.00  0.00  0.00  0.00  1.00  0.00  0.00
  Node562.1               1.00   0.00  0.00  0.00  1.00  0.00  0.00  0.00  0.97  0.00
  Node566.1               1.00   0.00  0.00  0.00  0.09  0.00  0.00  0.91  0.00  0.00
  Node572.1               1.00   0.00  0.00  0.00  0.00  0.00  0.00  1.00  0.00  0.00
  Node574.1               1.00   0.00  0.04  0.00  0.00  0.96  0.00  0.00  0.94  0.00
  Node586.1               1.00   0.00  1.00  0.00  0.00  0.00  0.00  0.00  0.00  0.00
  Node589.1               1.00   0.00  0.00  0.00  0.00  0.00  0.00  1.00  0.00  0.00
  Node594.1               1.00   0.00  0.00  0.00  0.05  0.95  0.00  0.00  0.98  0.00
  Node600.1               1.00   0.00  0.00  0.00  0.08  0.00  0.00  0.92  0.00  0.00
  Node603.1               1.00   0.03  0.00  0.00  0.02  0.00  0.00  0.95  0.00  0.00
  Node606.1               1.00   0.00  0.00  0.00  0.05  0.00  0.00  0.94  0.00  0.00
  Node613.1               1.00   0.00  0.67  0.00  0.33  0.00  0.00  0.00  0.80  0.00
  Node616.1               1.00   0.00  0.00  0.00  0.00  0.99  0.00  0.00  0.06  0.00
  Node618.1               3.90   0.00  0.00  0.00  0.92  0.08  0.00  0.00  0.92  0.00
  Node650.1               1.00   0.00  0.00  0.00  0.00  0.00  0.00  1.00  0.00  0.00
  Node670.1               1.66   0.00  0.00  0.00  0.00  0.42  0.00  0.58  0.24  0.00
  Node673.1               1.00   0.00  0.00  0.00  0.00  0.00  1.00  0.00  0.00  0.00
  Node684.1               1.00   0.00  0.00  0.00  1.00  0.00  0.00  0.00  0.09  0.00
  Node691.1               1.00   0.00  0.00  0.00  1.00  0.00  0.00  0.00  0.00  0.00
  Node703.1               1.00   0.02  0.00  0.00  0.98  0.00  0.00  0.00  0.89  0.00
  Node706.1               1.00   0.00  0.00  0.00  1.00  0.00  0.00  0.00  0.00  0.00
  Node717.1               1.00   0.00  0.00  0.00  0.01  0.99  0.00  0.00  0.34  0.00
  Node8000.1              1.10   0.00  0.00  0.00  0.69  0.31  0.00  0.00  0.02  0.00
  Node8001.1              1.00   0.00  0.00  0.00  0.01  0.99  0.00  0.00  0.19  0.00
  Node8005.1              1.00   0.00  0.00  0.00  0.22  0.00  0.00  0.78  0.00  0.00
  Node8006.1              1.00   0.00  0.00  0.00  1.00  0.00  0.00  0.00  0.00  0.00
  Node8011.1              1.25   0.00  0.00  0.00  0.33  0.67  0.00  0.00  0.27  0.00
  Node8012.1              3.70   0.00  0.00  0.00  0.01  0.99  0.00  0.00  0.74  0.00
  Node8290.1              1.00   0.00  0.02  0.00  0.98  0.00  0.00  0.00  0.00  0.00
  Node908.1               1.00   0.00  0.00  0.00  1.00  0.00  0.00  0.00  0.00  0.00
  Node915.1               1.00   0.00  0.00  0.00  0.01  0.00  0.00  0.99  0.00  0.00
  Node917.1               1.00   0.00  0.00  0.00  1.00  0.00  0.00  0.00  0.00  0.00
  Node9201.1              1.00   0.00  0.00  0.00  0.07  0.93  0.00  0.00  0.32  0.00
  Node921.1               1.00   0.00  0.00  0.00  0.96  0.04  0.00  0.00  0.16  0.00
  Node928.1               1.27   0.00  0.00  0.00  0.98  0.02  0.00  0.00  0.01  0.00
  Node930.1               1.00   0.00  0.00  0.00  0.66  0.34  0.00  0.00  0.88  0.00
  Node932.1               1.00   0.00  0.00  0.00  0.00  0.00  0.00  1.00  0.00  0.00
  Node933.1               1.00   0.00  0.02  0.00  0.00  0.00  0.98  0.00  0.00  0.00
  Node946.1               1.00   0.00  0.00  0.00  0.96  0.00  0.00  0.04  0.85  0.00
  Node947.1               1.00   0.00  0.00  0.00  0.00  0.00  0.00  1.00  0.00  0.00
  Node948.1               1.00   0.00  0.00  0.00  1.00  0.00  0.00  0.00  0.00  0.00
  Node951.1               1.00   0.00  0.00  0.00  0.42  0.58  0.00  0.00  0.17  0.00
  Node952.1               1.00   0.00  0.00  0.00  0.00  0.00  0.00  1.00  0.00  0.00
  Node953.1               1.00   0.00  0.00  0.00  0.69  0.31  0.00  0.00  1.00  0.00
  Node957.1               1.00   0.00  0.00  0.00  0.05  0.00  0.00  0.95  0.00  0.00
  OV#27.1                 1.00   0.00  0.67  0.00  0.33  0.00  0.00  0.00  0.84  0.00
  Link3764                1.00   0.09  0.00  0.00  0.00  0.91  0.00  0.00  0.18  0.00
  Link3771                1.00   0.03  0.00  0.00  0.97  0.00  0.00  0.00  0.00  0.00
  Link3772                1.00   0.02  0.00  0.00  0.71  0.00  0.26  0.00  0.00  0.00
  Link3774                2.18   0.03  0.00  0.00  0.97  0.00  0.00  0.00  0.00  0.00
  Link3775                1.00   0.04  0.00  0.00  0.96  0.00  0.00  0.00  0.00  0.00
  Link3776                1.00   0.00  0.00  0.00  0.28  0.00  0.00  0.71  0.00  0.00
  Link3812                1.00   0.03  0.74  0.00  0.00  0.00  0.22  0.00  0.00  0.00
  Link3813                1.00   0.00  0.00  0.00  0.97  0.03  0.00  0.00  0.94  0.00
  Link3827                1.28   0.00  0.00  0.00  0.00  0.00  0.00  1.00  0.00  0.00
  
  
  *************************
  Conduit Surcharge Summary
  *************************
  
  ----------------------------------------------------------------------------
                                                           Hours        Hours 
                         --------- Hours Full --------   Above Full   Capacity
  Conduit                Both Ends  Upstream  Dnstream   Normal Flow   Limited
  ----------------------------------------------------------------------------
  DGM_00025.1                 0.01      0.01      0.03      0.01         0.01
  DGM_00075.1                 0.45      0.45      1.17      0.01         0.01
  DGM_00078.1                 0.26      0.26      0.45      0.01         0.01
  DGM_00509.1                 0.01      0.01      0.01      0.01         0.01
  DGM_00946.1                 0.01      0.01      0.01      0.47         0.01
  DGM_00947.1                 0.01      0.01      0.01      0.52         0.01
  DGM_00948.1                 0.12      0.12      0.15      0.01         0.01
  DGM_00950.1                 0.01      0.01      0.01      0.14         0.01
  DGM_01225.1                 0.01      1.31      0.01      1.66         0.01
  DGM_01281.1                 0.01      0.01      0.01      0.04         0.01
  DGM_01295.1                 0.01      0.01      0.01      2.51         0.01
  DGM_01346.1                 0.01      0.01      0.01      0.22         0.01
  DGM_01366.1                 0.01      0.01      0.01      0.31         0.01
  DGM_01377.1                 0.01      0.01      0.01      0.16         0.01
  DGM_01481.1                 0.01      0.01      0.01      0.05         0.01
  DGM_01482.1                 0.01      0.01      0.01      0.18         0.01
  DGM_01499.1                 0.15      0.18      0.16      0.20         0.14
  DGM_01500.1                 0.03      0.03      0.05      0.05         0.01
  DGM_01724.1                 0.08      0.17      0.08      0.38         0.08
  DGM_01733.1                 0.01      0.01      0.04      0.01         0.01
  DGM_02045.1                 0.02      0.02      0.04      0.01         0.01
  DGM_0215.1                  0.01      0.01      0.01      0.33         0.01
  DGM_02155.1                 0.01      0.01      0.01      0.20         0.01
  DGM_02174.1                 0.01      0.04      0.01      0.22         0.01
  DGM_02175.1                 0.41      0.41      0.43      0.01         0.01
  DGM_02297.1                 0.01      0.01      0.23      0.01         0.01
  DGM_02298.1                 0.01      0.01      1.03      0.01         0.01
  DGM_02299.1                 1.17      1.17     22.50      0.01         0.01
  DGM_02439.1                 0.01      0.01      0.01      0.34         0.01
  DGM_02488.1                 0.01      0.01      0.01      0.28         0.01
  DGM_03128.1                 0.01      0.01      0.02      0.01         0.01
  DGM_03136.1                 0.04      0.04      0.22      0.01         0.01
  DGM_03149.1                 0.13      0.13      0.31      0.01         0.01
  DGM_03153.1                 1.17      1.17      1.28      0.04         0.11
  DGM_03172.1                 0.01      0.01      0.01      0.06         0.01
  DGM_03174.1                 0.01      0.01      0.01      0.08         0.01
  DGM_03176.1                 0.49      0.49      1.21      0.01         0.01
  DGM_03177.1                22.59     22.59     22.59      0.51         0.51
  DGM_03178.1                22.50     22.50     22.54      0.01         0.01
  DGM_03180.1                 0.01      0.01      0.01      0.20         0.01
  DGM_03184.1                 0.01      0.01      0.01      0.19         0.01
  DGM_03405.1                 0.01      0.01      0.01      0.14         0.01
  DGM_03418.1                 0.01      0.01      0.06      0.01         0.01
  DGM_03447.1                 0.01      0.01      0.21      0.01         0.01
  DGM_03448.1                 0.21      0.21      0.29      0.01         0.01
  DGM_03506.1                22.59     22.59     22.68      0.01         0.01
  DGM_03507.1                22.54     22.54     22.59      0.01         0.01
  DGM_03936.1                 0.01      0.01      0.01      0.16         0.01
  DGM_03942.1                 0.16      0.42      0.16      0.68         0.16
  DGM_03943.1                 0.01      0.01      0.01      0.31         0.01
  DGM_03991.1                 0.02      0.02      0.02      0.01         0.01
  DGM_03992.1                 0.05      0.05      0.07      0.01         0.01
  DGM_03993.1                 0.08      0.11      0.08      0.15         0.08
  DGM_04001.1                 0.05      0.09      0.05      0.15         0.05
  DGM_04002.1                 0.01      0.08      0.01      0.15         0.01
  DGM_04003.1                 0.01      0.01      0.01      0.01         0.01
  DGM_04020.1                 0.01      0.01      0.12      0.01         0.01
  DGM_04024.1                 0.12      0.16      0.12      0.31         0.12
  DGM_04027.1                 0.01      0.01      0.01      0.06         0.01
  DGM_04028.1                 0.01      0.01      0.01      0.06         0.01
  DGM_04030.1                 0.01      0.01      0.01      0.12         0.01
  DGM_04031.1                 0.01      0.01      0.01      0.10         0.01
  DGM_04071.1                 0.01      0.01      0.01      0.05         0.01
  DGM_04101.1                 0.34      0.59      0.34      0.76         0.34
  DGM_04102.1                 0.59      0.65      0.59      0.89         0.59
  DGM_04104.1                 0.58      0.58      0.63      0.01         0.01
  DGM_04105.1                 0.48      0.48      0.58      0.01         0.01
  DGM_04106.1                 0.44      0.44      0.48      0.01         0.01
  DGM_04108.1                 0.38      0.38      0.44      0.01         0.01
  DGM_04116.1                 0.21      0.22      0.22      0.92         0.16
  DGM_04129.1                 0.01      0.01      0.01      0.31         0.01
  DGM_04141.1                 0.01      0.01      0.36      0.01         0.01
  DGM_04145.1                 0.01      0.06      0.01      0.61         0.01
  DGM_04146.1                 0.17      0.17      0.17      0.17         0.17
  DGM_04165.1                 0.01      0.01      0.01      0.76         0.01
  DGM_04167.1                 0.14      0.14      0.15      0.12         0.11
  DGM_04168.1                 0.12      0.12      0.13      0.01         0.01
  DGM_04169.1                 0.14      0.14      0.20      0.01         0.01
  DGM_04170.1                 0.13      0.18      0.13      0.49         0.13
  DGM_04171.1                 0.12      0.12      0.17      0.01         0.01
  DGM_04172.1                 0.09      0.10      0.09      0.29         0.08
  DGM_04173.1                 0.01      0.01      0.10      0.01         0.01
  DGM_04174.1                 0.05      0.06      0.05      0.43         0.05
  DGM_04178.1                 0.18      0.18      0.32      0.01         0.01
  DGM_04179.1                 0.06      0.06      0.12      0.01         0.01
  DGM_04180.1                 0.02      0.02      0.06      0.03         0.01
  DGM_04187.1                 0.01      0.01      0.01      0.11         0.01
  DGM_04189.1                 0.01      0.01      0.01      0.01         0.01
  DGM_04192.1                 0.01      0.01      0.01      0.01         0.01
  DGM_04201.1                 0.01      0.01      0.01      0.03         0.01
  DGM_04207.1                 0.01      0.06      0.01      0.17         0.01
  DGM_04211.1                 0.01      0.01      0.01      0.03         0.01
  DGM_04215.1                 0.01      0.01      0.01      0.04         0.01
  DGM_04222.1                 0.01      0.01      0.01      0.23         0.01
  DGM_04223.1                 0.04      0.14      0.04      0.34         0.04
  DGM_04234.1                 0.55      0.56      0.56      0.60         0.53
  DGM_04241.1                 0.39      0.56      0.39      1.04         0.39
  DGM_04242.1                 0.30      0.40      0.30      0.62         0.30
  DGM_04243.1                 0.40      0.44      0.40      0.55         0.40
  DGM_04262.1                 0.36      0.36      0.84      0.10         0.10
  DGM_04266.1                 0.27      0.27      0.36      0.07         0.07
  DGM_04273.1                 0.10      0.10      0.11      0.04         0.01
  DGM_04274.1                 0.01      0.01     22.37      0.01         0.01
  DGM_04275.1                 0.01      0.01     22.38      0.01         0.01
  DGM_04285.1                 0.01      0.01      0.01      0.02         0.01
  DGM_04289.1                 0.01      0.06      0.01      0.16         0.01
  DGM_04303.1                 0.01      0.01      0.01      0.01         0.01
  DGM_04319.1                 0.01      0.01      0.01      0.10         0.01
  DGM_04366.1                 0.01      0.01      0.24      0.01         0.01
  DGM_04367.1                 0.24      0.24      0.28      0.01         0.01
  DGM_04382.1                 0.01      0.01      0.01      0.33         0.01
  DGM_04384.1                 0.01      0.01      0.12      0.01         0.01
  DGM_04386.1                 0.01      0.01      0.01      0.81         0.01
  DGM_04389.1                 0.01      0.10      0.01      0.17         0.01
  DGM_04398.1                 0.01      0.01      0.01      0.06         0.01
  DGM_04399.1                 0.01      0.01      0.11      0.01         0.01
  DGM_04694.1                 0.06      0.17      0.06      0.57         0.06
  Node1031.1                  0.01      0.01      0.01      0.16         0.01
  Node1301.1                 22.62     22.62     22.63      0.01         0.01
  Node1507.1                  0.01      0.01      0.01      0.01         0.01
  Node2285.1                  0.01      0.01      0.34      0.01         0.01
  Node2288.1                  0.01      0.01      0.01      0.07         0.01
  Node2298.1                  0.17      0.17      0.27      0.01         0.01
  Node2299.1                  0.17      0.21      0.17      0.46         0.17
  Node2300.1                  0.01      0.27      0.01      0.55         0.01
  Node2301.1                  0.01      0.01      0.01      0.05         0.01
  Node2302.1                  0.11      0.12      0.12      0.15         0.10
  Node2303.1                  0.14      0.21      0.14      0.31         0.14
  Node2304.1                  0.11      0.11      0.12      0.13         0.09
  Node2305.1                  0.41      0.41      0.41      0.55         0.40
  Node2306.1                  0.39      0.39      0.56      0.01         0.01
  Node2313.1                  0.01      0.01      0.46      0.01         0.01
  Node2316.1                  0.01      0.01      0.01      0.31         0.01
  Node2318.1                  0.01      0.01      0.22      0.01         0.01
  Node2326.1                  0.04      0.04      0.04      0.01         0.01
  Node2355.1                  0.01      0.01      0.01      0.21         0.01
  Node2356.1                 22.50     22.50     22.72      0.01         0.01
  Node2357.1                 22.68     22.68     22.72      0.29         0.29
  Node2361.1                  0.01      0.01      0.01      0.13         0.01
  Node2363.1                  0.01      0.01      0.08      0.01         0.01
  Node2381.1                  0.03      0.03      0.16      0.01         0.01
  Node2382.1                  0.01      0.01      0.04      0.01         0.01
  Node2428.1                 22.63     22.63     22.65      0.36         0.37
  Node2436.1                  0.01      0.01      0.01      0.14         0.01
  Node2456.1                  0.01      0.01      0.01      0.24         0.01
  Node2471.1                  0.01      0.01      0.01      0.08         0.01
  Node2475.1                  0.01      0.01      0.01      0.07         0.01
  Node2485.1                  0.01      0.01      0.01      0.03         0.01
  Node2502.1                  0.13      0.15      0.13      0.62         0.13
  Node541.1                   0.01      0.01      0.34      0.01         0.01
  Node562.1                   0.01      0.01      0.06      0.01         0.01
  Node600.1                   0.11      0.11      0.17      0.01         0.01
  Node603.1                   0.02      0.05      0.02      0.11         0.02
  Node606.1                   0.08      0.08      0.10      0.09         0.07
  Node673.1                   0.01      0.01      0.01      0.37         0.01
  Node703.1                   0.60      0.60      0.65      0.01         0.01
  Node706.1                   0.01      0.34      0.01      6.40         0.01
  Node8000.1                  0.01      0.01      0.01      0.78         0.01
  Node8005.1                  0.11      0.12      0.11      0.17         0.11
  Node8006.1                  0.16      0.20      0.16      2.45         0.16
  Node8011.1                  0.05      0.30      0.05      0.65         0.05
  Node8012.1                  0.01      0.06      0.01      0.38         0.01
  Node8290.1                  0.01      0.01      0.01      0.28         0.01
  Node917.1                   0.01      0.01      0.01      4.14         0.01
  Node9201.1                  0.01      0.01      0.01      0.20         0.01
  Node921.1                   0.01      0.01     22.50      0.01         0.01
  Node928.1                  22.68     22.68     22.72      0.01         0.01
  Node932.1                   0.01      0.01      0.01      0.17         0.01
  Node933.1                   0.01      0.01      0.28      0.60         0.01
  Node946.1                   0.01      0.01      0.16      0.01         0.01
  Node948.1                   0.01      0.01      0.01      0.09         0.01
  Node957.1                   0.01      0.04      0.01      0.31         0.01
  OV#27.1                     0.72      0.72      3.21      0.01         0.01
  Link3771                    0.01      0.01      0.01      0.04         0.01
  Link3772                    0.01      0.01      0.01      0.09         0.01
  Link3775                    0.01      0.01      0.01      0.04         0.01
  Link3776                    0.35      0.35      0.42      0.01         0.01
  Link3812                    0.01      0.01      1.31      0.48         0.01
  Link3813                    0.15      0.15      0.35      0.01         0.01
  

  Analysis begun on:  Fri Nov 29 08:15:42 2019
  Analysis ended on:  Fri Nov 29 08:15:48 2019
  Total elapsed time: 00:00:06