
  EPA STORM WATER MANAGEMENT MODEL - VERSION 5.1 (Build 5.1.013)
  --------------------------------------------------------------

  WARNING 04: minimum elevation drop used for Conduit STMCUL00105_1
  WARNING 04: minimum elevation drop used for Conduit STMCUL00105_2
  WARNING 04: minimum elevation drop used for Conduit STMMN01043-S
  WARNING 04: minimum elevation drop used for Conduit STMMN01044-S
  WARNING 03: negative offset ignored for Link STMMN07450
  WARNING 03: negative offset ignored for Link STMMN07913
  WARNING 04: minimum elevation drop used for Conduit STMMN09194-S
  WARNING 04: minimum elevation drop used for Conduit STMMN09284-S
  WARNING 04: minimum elevation drop used for Conduit STMSUR05559
  WARNING 02: maximum depth increased for Node DUMMH00659
  WARNING 02: maximum depth increased for Node DUMMH00661
  WARNING 02: maximum depth increased for Node DUMMH00673
  WARNING 02: maximum depth increased for Node DUMMH00701
  WARNING 02: maximum depth increased for Node DUMMH00715
  WARNING 02: maximum depth increased for Node DUMMH00719
  WARNING 02: maximum depth increased for Node DUMMH00723
  WARNING 02: maximum depth increased for Node DUMMH00725
  WARNING 02: maximum depth increased for Node DUMMH00729
  WARNING 02: maximum depth increased for Node DUMMH00737
  WARNING 02: maximum depth increased for Node DUMMH00747
  WARNING 02: maximum depth increased for Node DUMMH00748
  WARNING 02: maximum depth increased for Node DUMMH00750
  WARNING 02: maximum depth increased for Node DUMMH00753
  WARNING 02: maximum depth increased for Node DUMMH00892
  WARNING 02: maximum depth increased for Node DUMMH00900
  WARNING 02: maximum depth increased for Node DUMMH00902
  WARNING 02: maximum depth increased for Node DUMMH00904
  WARNING 02: maximum depth increased for Node DUMMH00914
  WARNING 02: maximum depth increased for Node DUMMH00916
  WARNING 02: maximum depth increased for Node DUMMH00920
  WARNING 02: maximum depth increased for Node DUMMH00922
  WARNING 02: maximum depth increased for Node DUMMH00924
  WARNING 02: maximum depth increased for Node DUMMH00926
  WARNING 02: maximum depth increased for Node DUMMH00932
  WARNING 02: maximum depth increased for Node DUMMH00934
  WARNING 02: maximum depth increased for Node DUMMH00942
  WARNING 02: maximum depth increased for Node DUMMH00954
  WARNING 02: maximum depth increased for Node DUMMH00956
  WARNING 02: maximum depth increased for Node DUMMH00968
  WARNING 02: maximum depth increased for Node DUMMH00970
  WARNING 02: maximum depth increased for Node DUMMH00976
  WARNING 02: maximum depth increased for Node DUMMH00978
  WARNING 02: maximum depth increased for Node DUMMH00980
  WARNING 02: maximum depth increased for Node DUMMH00986
  WARNING 02: maximum depth increased for Node DUMMH01306
  WARNING 02: maximum depth increased for Node DUMMH01307
  WARNING 02: maximum depth increased for Node DUMMH01309
  WARNING 02: maximum depth increased for Node DUMMH01311
  WARNING 02: maximum depth increased for Node DUMMH01318
  WARNING 02: maximum depth increased for Node DUMMH01322
  WARNING 02: maximum depth increased for Node DUMMH01324
  WARNING 02: maximum depth increased for Node DUMMH01326
  WARNING 02: maximum depth increased for Node DUMMH01331
  WARNING 02: maximum depth increased for Node DUMMH01332
  WARNING 02: maximum depth increased for Node DUMMH01334
  WARNING 02: maximum depth increased for Node DUMMH01337
  WARNING 02: maximum depth increased for Node DUMMH01338
  WARNING 02: maximum depth increased for Node DUMMH03048
  WARNING 02: maximum depth increased for Node DUMMH5756
  WARNING 02: maximum depth increased for Node DUMMH5757
  WARNING 02: maximum depth increased for Node DUMMH5782
  WARNING 02: maximum depth increased for Node DUMMH5783
  WARNING 02: maximum depth increased for Node DUMMH6963
  WARNING 02: maximum depth increased for Node STMCO00038
  WARNING 02: maximum depth increased for Node STMFIT00047
  WARNING 02: maximum depth increased for Node STMFIT00117
  WARNING 02: maximum depth increased for Node STMFIT00127
  WARNING 02: maximum depth increased for Node STMFIT00133
  WARNING 02: maximum depth increased for Node STMFIT00172
  WARNING 02: maximum depth increased for Node STMFIT00173
  WARNING 02: maximum depth increased for Node STMFIT00174
  WARNING 02: maximum depth increased for Node STMFIT00175
  WARNING 02: maximum depth increased for Node STMFIT00178
  WARNING 02: maximum depth increased for Node STMFIT00180
  WARNING 02: maximum depth increased for Node STMFIT00181
  WARNING 02: maximum depth increased for Node STMFIT00185
  WARNING 02: maximum depth increased for Node STMFIT00186
  WARNING 02: maximum depth increased for Node STMFIT00187
  WARNING 02: maximum depth increased for Node STMFIT00190
  WARNING 02: maximum depth increased for Node STMFIT00202
  WARNING 02: maximum depth increased for Node STMFIT00285
  WARNING 02: maximum depth increased for Node STMFIT00286
  WARNING 02: maximum depth increased for Node STMFIT00324
  WARNING 02: maximum depth increased for Node STMFIT00325
  WARNING 02: maximum depth increased for Node STMFIT00410
  WARNING 02: maximum depth increased for Node STMMH00007
  WARNING 02: maximum depth increased for Node STMMH00070
  WARNING 02: maximum depth increased for Node STMMH00072
  WARNING 02: maximum depth increased for Node STMMH00073
  WARNING 02: maximum depth increased for Node STMMH00074
  WARNING 02: maximum depth increased for Node STMMH00079
  WARNING 02: maximum depth increased for Node STMMH00112
  WARNING 02: maximum depth increased for Node STMMH00113
  WARNING 02: maximum depth increased for Node STMMH00115
  WARNING 02: maximum depth increased for Node STMMH00116
  WARNING 02: maximum depth increased for Node STMMH00117
  WARNING 02: maximum depth increased for Node STMMH00133
  WARNING 02: maximum depth increased for Node STMMH00134
  WARNING 02: maximum depth increased for Node STMMH00135
  WARNING 02: maximum depth increased for Node STMMH00136
  WARNING 02: maximum depth increased for Node STMMH00137
  WARNING 02: maximum depth increased for Node STMMH00155
  WARNING 02: maximum depth increased for Node STMMH00156
  WARNING 02: maximum depth increased for Node STMMH00157
  WARNING 02: maximum depth increased for Node STMMH00160
  WARNING 02: maximum depth increased for Node STMMH00161
  WARNING 02: maximum depth increased for Node STMMH00162
  WARNING 02: maximum depth increased for Node STMMH00163
  WARNING 02: maximum depth increased for Node STMMH00164
  WARNING 02: maximum depth increased for Node STMMH00165
  WARNING 02: maximum depth increased for Node STMMH00166
  WARNING 02: maximum depth increased for Node STMMH00167
  WARNING 02: maximum depth increased for Node STMMH00168
  WARNING 02: maximum depth increased for Node STMMH00169
  WARNING 02: maximum depth increased for Node STMMH00170
  WARNING 02: maximum depth increased for Node STMMH00171
  WARNING 02: maximum depth increased for Node STMMH00172
  WARNING 02: maximum depth increased for Node STMMH00174
  WARNING 02: maximum depth increased for Node STMMH00176
  WARNING 02: maximum depth increased for Node STMMH00177
  WARNING 02: maximum depth increased for Node STMMH00178
  WARNING 02: maximum depth increased for Node STMMH00180
  WARNING 02: maximum depth increased for Node STMMH00181
  WARNING 02: maximum depth increased for Node STMMH00182
  WARNING 02: maximum depth increased for Node STMMH00183
  WARNING 02: maximum depth increased for Node STMMH00185
  WARNING 02: maximum depth increased for Node STMMH00186
  WARNING 02: maximum depth increased for Node STMMH00187
  WARNING 02: maximum depth increased for Node STMMH00188
  WARNING 02: maximum depth increased for Node STMMH00189
  WARNING 02: maximum depth increased for Node STMMH00190
  WARNING 02: maximum depth increased for Node STMMH00191
  WARNING 02: maximum depth increased for Node STMMH00192
  WARNING 02: maximum depth increased for Node STMMH00193
  WARNING 02: maximum depth increased for Node STMMH00194
  WARNING 02: maximum depth increased for Node STMMH00195
  WARNING 02: maximum depth increased for Node STMMH00196
  WARNING 02: maximum depth increased for Node STMMH00197
  WARNING 02: maximum depth increased for Node STMMH00198
  WARNING 02: maximum depth increased for Node STMMH00199
  WARNING 02: maximum depth increased for Node STMMH00200
  WARNING 02: maximum depth increased for Node STMMH00201
  WARNING 02: maximum depth increased for Node STMMH00202
  WARNING 02: maximum depth increased for Node STMMH00203
  WARNING 02: maximum depth increased for Node STMMH00204
  WARNING 02: maximum depth increased for Node STMMH00205
  WARNING 02: maximum depth increased for Node STMMH00206
  WARNING 02: maximum depth increased for Node STMMH00208
  WARNING 02: maximum depth increased for Node STMMH00209
  WARNING 02: maximum depth increased for Node STMMH00210
  WARNING 02: maximum depth increased for Node STMMH00211
  WARNING 02: maximum depth increased for Node STMMH00212
  WARNING 02: maximum depth increased for Node STMMH00213
  WARNING 02: maximum depth increased for Node STMMH00215
  WARNING 02: maximum depth increased for Node STMMH00216
  WARNING 02: maximum depth increased for Node STMMH00219
  WARNING 02: maximum depth increased for Node STMMH00220
  WARNING 02: maximum depth increased for Node STMMH00221
  WARNING 02: maximum depth increased for Node STMMH00222
  WARNING 02: maximum depth increased for Node STMMH00223
  WARNING 02: maximum depth increased for Node STMMH00224
  WARNING 02: maximum depth increased for Node STMMH00226
  WARNING 02: maximum depth increased for Node STMMH00227
  WARNING 02: maximum depth increased for Node STMMH00441
  WARNING 02: maximum depth increased for Node STMMH00442
  WARNING 02: maximum depth increased for Node STMMH00532
  WARNING 02: maximum depth increased for Node STMMH00533
  WARNING 02: maximum depth increased for Node STMMH00534
  WARNING 02: maximum depth increased for Node STMMH00536
  WARNING 02: maximum depth increased for Node STMMH00541
  WARNING 02: maximum depth increased for Node STMMH00542
  WARNING 02: maximum depth increased for Node STMMH00543
  WARNING 02: maximum depth increased for Node STMMH00544
  WARNING 02: maximum depth increased for Node STMMH00545
  WARNING 02: maximum depth increased for Node STMMH00546
  WARNING 02: maximum depth increased for Node STMMH00547
  WARNING 02: maximum depth increased for Node STMMH00548
  WARNING 02: maximum depth increased for Node STMMH00549
  WARNING 02: maximum depth increased for Node STMMH00550
  WARNING 02: maximum depth increased for Node STMMH00753
  WARNING 02: maximum depth increased for Node STMMH00754
  WARNING 02: maximum depth increased for Node STMMH00755
  WARNING 02: maximum depth increased for Node STMMH00756
  WARNING 02: maximum depth increased for Node STMMH00757
  WARNING 02: maximum depth increased for Node STMMH00759
  WARNING 02: maximum depth increased for Node STMMH00878
  WARNING 02: maximum depth increased for Node STMMH00879
  WARNING 02: maximum depth increased for Node STMMH00882
  WARNING 02: maximum depth increased for Node STMMH00910
  WARNING 02: maximum depth increased for Node STMMH00911
  WARNING 02: maximum depth increased for Node STMMH00924
  WARNING 02: maximum depth increased for Node STMMH00925
  WARNING 02: maximum depth increased for Node STMMH00926
  WARNING 02: maximum depth increased for Node STMMH00927
  WARNING 02: maximum depth increased for Node STMMH00928
  WARNING 02: maximum depth increased for Node STMMH00929
  WARNING 02: maximum depth increased for Node STMMH00930
  WARNING 02: maximum depth increased for Node STMMH00936
  WARNING 02: maximum depth increased for Node STMMH00937
  WARNING 02: maximum depth increased for Node STMMH00938
  WARNING 02: maximum depth increased for Node STMMH00980
  WARNING 02: maximum depth increased for Node STMMH00981
  WARNING 02: maximum depth increased for Node STMMH00982
  WARNING 02: maximum depth increased for Node STMMH00983
  WARNING 02: maximum depth increased for Node STMMH00984
  WARNING 02: maximum depth increased for Node STMMH00985
  WARNING 02: maximum depth increased for Node STMMH01024
  WARNING 02: maximum depth increased for Node STMMH01025
  WARNING 02: maximum depth increased for Node STMMH06194
  WARNING 02: maximum depth increased for Node STMMH06195
  WARNING 02: maximum depth increased for Node STMMH06196
  WARNING 02: maximum depth increased for Node STMMH06197
  WARNING 02: maximum depth increased for Node STMMH06198
  WARNING 02: maximum depth increased for Node STMMH06199
  WARNING 02: maximum depth increased for Node STMMH06200
  WARNING 02: maximum depth increased for Node STMMH06202
  WARNING 02: maximum depth increased for Node STMMH06203
  WARNING 02: maximum depth increased for Node STMMH06205
  WARNING 02: maximum depth increased for Node STMMH06208
  WARNING 02: maximum depth increased for Node STMMH06209
  WARNING 02: maximum depth increased for Node STMMH06210
  WARNING 02: maximum depth increased for Node STMMH06211
  WARNING 02: maximum depth increased for Node STMMH06212
  WARNING 02: maximum depth increased for Node STMMH06213
  WARNING 02: maximum depth increased for Node STMMH06214
  WARNING 02: maximum depth increased for Node STMMH06215
  WARNING 02: maximum depth increased for Node STMMH06218
  WARNING 02: maximum depth increased for Node STMMH06221
  WARNING 02: maximum depth increased for Node STMMH06222
  WARNING 02: maximum depth increased for Node STMMH06223
  WARNING 02: maximum depth increased for Node STMMH06224
  WARNING 02: maximum depth increased for Node STMMH06225
  WARNING 02: maximum depth increased for Node STMMH06226
  WARNING 02: maximum depth increased for Node STMMH06227
  WARNING 02: maximum depth increased for Node STMMH06228
  WARNING 02: maximum depth increased for Node STMMH06229
  WARNING 02: maximum depth increased for Node STMMH06230
  WARNING 02: maximum depth increased for Node STMMH06231
  WARNING 02: maximum depth increased for Node STMMH06233
  WARNING 02: maximum depth increased for Node STMMH06235
  WARNING 02: maximum depth increased for Node STMMH06236
  WARNING 02: maximum depth increased for Node STMMH06237
  WARNING 02: maximum depth increased for Node STMMH06238
  WARNING 02: maximum depth increased for Node STMMH06239
  WARNING 02: maximum depth increased for Node STMMH06240
  WARNING 02: maximum depth increased for Node STMMH06241
  WARNING 02: maximum depth increased for Node STMMH06242
  WARNING 02: maximum depth increased for Node STMMH06243
  WARNING 02: maximum depth increased for Node STMMH06244
  WARNING 02: maximum depth increased for Node STMMH06245
  WARNING 02: maximum depth increased for Node STMMH06246
  WARNING 02: maximum depth increased for Node STMMH06247
  WARNING 02: maximum depth increased for Node STMMH06248
  WARNING 02: maximum depth increased for Node STMMH06249
  WARNING 02: maximum depth increased for Node STMMH06250
  WARNING 02: maximum depth increased for Node STMMH06251
  WARNING 02: maximum depth increased for Node STMMH06252
  WARNING 02: maximum depth increased for Node STMMH06253
  WARNING 02: maximum depth increased for Node STMMH06254
  WARNING 02: maximum depth increased for Node STMMH06255
  WARNING 02: maximum depth increased for Node STMMH06256
  WARNING 02: maximum depth increased for Node STMMH06257
  WARNING 02: maximum depth increased for Node STMMH06258
  WARNING 02: maximum depth increased for Node STMMH06259
  WARNING 02: maximum depth increased for Node STMMH06260
  WARNING 02: maximum depth increased for Node STMMH06261
  WARNING 02: maximum depth increased for Node STMMH06262
  WARNING 02: maximum depth increased for Node STMMH06263
  WARNING 02: maximum depth increased for Node STMMH06264
  WARNING 02: maximum depth increased for Node STMMH06265
  WARNING 02: maximum depth increased for Node STMMH06266
  WARNING 02: maximum depth increased for Node STMMH06267
  WARNING 02: maximum depth increased for Node STMMH06268
  WARNING 02: maximum depth increased for Node STMMH06269
  WARNING 02: maximum depth increased for Node STMMH06270
  WARNING 02: maximum depth increased for Node STMMH06271
  WARNING 02: maximum depth increased for Node STMMH06272
  WARNING 02: maximum depth increased for Node STMMH06273
  WARNING 02: maximum depth increased for Node STMMH06274
  WARNING 02: maximum depth increased for Node STMMH06277
  WARNING 02: maximum depth increased for Node STMMH06279
  WARNING 02: maximum depth increased for Node STMMH06280
  WARNING 02: maximum depth increased for Node STMMH06281
  WARNING 02: maximum depth increased for Node STMMH06284
  WARNING 02: maximum depth increased for Node STMMH06293
  WARNING 02: maximum depth increased for Node STMMH06294
  WARNING 02: maximum depth increased for Node STMMH06295
  WARNING 02: maximum depth increased for Node STMMH06296
  WARNING 02: maximum depth increased for Node STMMH06298
  WARNING 02: maximum depth increased for Node STMMH06300
  WARNING 02: maximum depth increased for Node STMMH06303
  WARNING 02: maximum depth increased for Node STMMH06304
  WARNING 02: maximum depth increased for Node STMMH06307
  WARNING 02: maximum depth increased for Node STMMH06308
  WARNING 02: maximum depth increased for Node STMMH06309
  WARNING 02: maximum depth increased for Node STMMH06310
  WARNING 02: maximum depth increased for Node STMMH06311
  WARNING 02: maximum depth increased for Node STMMH06312
  WARNING 02: maximum depth increased for Node STMMH06318
  WARNING 02: maximum depth increased for Node STMMH06319
  WARNING 02: maximum depth increased for Node STMMH06320
  WARNING 02: maximum depth increased for Node STMMH06321
  WARNING 02: maximum depth increased for Node STMMH06322
  WARNING 02: maximum depth increased for Node STMMH06323
  WARNING 02: maximum depth increased for Node STMMH06324
  WARNING 02: maximum depth increased for Node STMMH06325
  WARNING 02: maximum depth increased for Node STMMH06326
  WARNING 02: maximum depth increased for Node STMMH06327
  WARNING 02: maximum depth increased for Node STMMH06328
  WARNING 02: maximum depth increased for Node STMMH06329
  WARNING 02: maximum depth increased for Node STMMH06330
  WARNING 02: maximum depth increased for Node STMMH06331
  WARNING 02: maximum depth increased for Node STMMH06332
  WARNING 02: maximum depth increased for Node STMMH06333
  WARNING 02: maximum depth increased for Node STMMH06334
  WARNING 02: maximum depth increased for Node STMMH06335
  WARNING 02: maximum depth increased for Node STMMH06336
  WARNING 02: maximum depth increased for Node STMMH06337
  WARNING 02: maximum depth increased for Node STMMH06338
  WARNING 02: maximum depth increased for Node STMMH06341
  WARNING 02: maximum depth increased for Node STMMH06342
  WARNING 02: maximum depth increased for Node STMMH06343
  WARNING 02: maximum depth increased for Node STMMH06344
  WARNING 02: maximum depth increased for Node STMMH06345
  WARNING 02: maximum depth increased for Node STMMH06346
  WARNING 02: maximum depth increased for Node STMMH06350
  WARNING 02: maximum depth increased for Node STMMH06353
  WARNING 02: maximum depth increased for Node STMMH06354
  WARNING 02: maximum depth increased for Node STMMH06357
  WARNING 02: maximum depth increased for Node STMMH06358
  WARNING 02: maximum depth increased for Node STMMH06362
  WARNING 02: maximum depth increased for Node STMMH06363
  WARNING 02: maximum depth increased for Node STMMH06364
  WARNING 02: maximum depth increased for Node STMMH06365
  WARNING 02: maximum depth increased for Node STMMH06366
  WARNING 02: maximum depth increased for Node STMMH06369
  WARNING 02: maximum depth increased for Node STMMH06370
  WARNING 02: maximum depth increased for Node STMMH06374
  WARNING 02: maximum depth increased for Node STMMH06375
  WARNING 02: maximum depth increased for Node STMMH06376
  WARNING 02: maximum depth increased for Node STMMH06378
  WARNING 02: maximum depth increased for Node STMMH06379
  WARNING 02: maximum depth increased for Node STMMH06380
  WARNING 02: maximum depth increased for Node STMMH06381
  WARNING 02: maximum depth increased for Node STMMH06382
  WARNING 02: maximum depth increased for Node STMMH06383
  WARNING 02: maximum depth increased for Node STMMH06384
  WARNING 02: maximum depth increased for Node STMMH06385
  WARNING 02: maximum depth increased for Node STMMH06386
  WARNING 02: maximum depth increased for Node STMMH06387
  WARNING 02: maximum depth increased for Node STMMH06388
  WARNING 02: maximum depth increased for Node STMMH06391
  WARNING 02: maximum depth increased for Node STMMH06394
  WARNING 02: maximum depth increased for Node STMMH06395
  WARNING 02: maximum depth increased for Node STMMH06396
  WARNING 02: maximum depth increased for Node STMMH06397
  WARNING 02: maximum depth increased for Node STMMH06399
  WARNING 02: maximum depth increased for Node STMMH06400
  WARNING 02: maximum depth increased for Node STMMH06401
  WARNING 02: maximum depth increased for Node STMMH06412
  WARNING 02: maximum depth increased for Node STMMH06413
  WARNING 02: maximum depth increased for Node STMMH06417
  WARNING 02: maximum depth increased for Node STMMH06418
  WARNING 02: maximum depth increased for Node STMMH06419
  WARNING 02: maximum depth increased for Node STMMH06420
  WARNING 02: maximum depth increased for Node STMMH06421
  WARNING 02: maximum depth increased for Node STMMH06424
  WARNING 02: maximum depth increased for Node STMMH06425
  WARNING 02: maximum depth increased for Node STMMH06444
  WARNING 02: maximum depth increased for Node STMMH06446
  WARNING 02: maximum depth increased for Node STMMH06447
  WARNING 02: maximum depth increased for Node STMMH06456
  WARNING 02: maximum depth increased for Node STMMH06457
  WARNING 02: maximum depth increased for Node STMMH06458
  WARNING 02: maximum depth increased for Node STMMH06488
  WARNING 02: maximum depth increased for Node STMMH06489
  WARNING 02: maximum depth increased for Node STMMH06491
  WARNING 02: maximum depth increased for Node STMMH06492
  WARNING 02: maximum depth increased for Node STMMH06493
  WARNING 02: maximum depth increased for Node STMMH06494
  WARNING 02: maximum depth increased for Node STMMH06495
  WARNING 02: maximum depth increased for Node STMMH06496
  WARNING 02: maximum depth increased for Node STMMH06498
  WARNING 02: maximum depth increased for Node STMMH06499
  WARNING 02: maximum depth increased for Node STMMH06501
  WARNING 02: maximum depth increased for Node STMMH06502
  WARNING 02: maximum depth increased for Node STMMH06506
  WARNING 02: maximum depth increased for Node STMMH06507
  WARNING 02: maximum depth increased for Node STMMH06509
  WARNING 02: maximum depth increased for Node STMMH06513
  WARNING 02: maximum depth increased for Node STMMH06514
  WARNING 02: maximum depth increased for Node STMMH06515
  WARNING 02: maximum depth increased for Node STMMH06516
  WARNING 02: maximum depth increased for Node STMMH06517
  WARNING 02: maximum depth increased for Node STMMH06518
  WARNING 02: maximum depth increased for Node STMMH06519
  WARNING 02: maximum depth increased for Node STMMH06520
  WARNING 02: maximum depth increased for Node STMMH06521
  WARNING 02: maximum depth increased for Node STMMH06522
  WARNING 02: maximum depth increased for Node STMMH06524
  WARNING 02: maximum depth increased for Node STMMH06525
  WARNING 02: maximum depth increased for Node STMMH06526
  WARNING 02: maximum depth increased for Node STMMH06527
  WARNING 02: maximum depth increased for Node STMMH06529
  WARNING 02: maximum depth increased for Node STMMH06530
  WARNING 02: maximum depth increased for Node STMMH06531
  WARNING 02: maximum depth increased for Node STMMH06532
  WARNING 02: maximum depth increased for Node STMMH06534
  WARNING 02: maximum depth increased for Node STMMH06536
  WARNING 02: maximum depth increased for Node STMMH06537
  WARNING 02: maximum depth increased for Node STMMH06538
  WARNING 02: maximum depth increased for Node STMMH06539
  WARNING 02: maximum depth increased for Node STMMH06540
  WARNING 02: maximum depth increased for Node STMMH06541
  WARNING 02: maximum depth increased for Node STMMH06542
  WARNING 02: maximum depth increased for Node STMMH06543
  WARNING 02: maximum depth increased for Node STMMH06544
  WARNING 02: maximum depth increased for Node STMMH06545
  WARNING 02: maximum depth increased for Node STMMH06546
  WARNING 02: maximum depth increased for Node STMMH06547
  WARNING 02: maximum depth increased for Node STMMH06548
  WARNING 02: maximum depth increased for Node STMMH06549
  WARNING 02: maximum depth increased for Node STMMH06550
  WARNING 02: maximum depth increased for Node STMMH06551
  WARNING 02: maximum depth increased for Node STMMH06552
  WARNING 02: maximum depth increased for Node STMMH06553
  WARNING 02: maximum depth increased for Node STMMH06554
  WARNING 02: maximum depth increased for Node STMMH06555
  WARNING 02: maximum depth increased for Node STMMH06556
  WARNING 02: maximum depth increased for Node STMMH06557
  WARNING 02: maximum depth increased for Node STMMH06558
  WARNING 02: maximum depth increased for Node STMMH06559
  WARNING 02: maximum depth increased for Node STMMH06560
  WARNING 02: maximum depth increased for Node STMMH06561
  WARNING 02: maximum depth increased for Node STMMH06562
  WARNING 02: maximum depth increased for Node STMMH06563
  WARNING 02: maximum depth increased for Node STMMH06564
  WARNING 02: maximum depth increased for Node STMMH06566
  WARNING 02: maximum depth increased for Node STMMH06567
  WARNING 02: maximum depth increased for Node STMMH06568
  WARNING 02: maximum depth increased for Node STMMH06569
  WARNING 02: maximum depth increased for Node STMMH06570
  WARNING 02: maximum depth increased for Node STMMH06571
  WARNING 02: maximum depth increased for Node STMMH06572
  WARNING 02: maximum depth increased for Node STMMH06573
  WARNING 02: maximum depth increased for Node STMMH06574
  WARNING 02: maximum depth increased for Node STMMH06575
  WARNING 02: maximum depth increased for Node STMMH06577
  WARNING 02: maximum depth increased for Node STMMH06579
  WARNING 02: maximum depth increased for Node STMMH06580
  WARNING 02: maximum depth increased for Node STMMH06581
  WARNING 02: maximum depth increased for Node STMMH06582
  WARNING 02: maximum depth increased for Node STMMH06583
  WARNING 02: maximum depth increased for Node STMMH06584
  WARNING 02: maximum depth increased for Node STMMH06585
  WARNING 02: maximum depth increased for Node STMMH06586
  WARNING 02: maximum depth increased for Node STMMH06587
  WARNING 02: maximum depth increased for Node STMMH06588
  WARNING 02: maximum depth increased for Node STMMH06589
  WARNING 02: maximum depth increased for Node STMMH06590
  WARNING 02: maximum depth increased for Node STMMH06591
  WARNING 02: maximum depth increased for Node STMMH06596
  WARNING 02: maximum depth increased for Node STMMH06597
  WARNING 02: maximum depth increased for Node STMMH06598
  WARNING 02: maximum depth increased for Node STMMH06615
  WARNING 02: maximum depth increased for Node STMMH06616
  WARNING 02: maximum depth increased for Node STMMH06617
  WARNING 02: maximum depth increased for Node STMMH06620
  WARNING 02: maximum depth increased for Node STMMH06621
  WARNING 02: maximum depth increased for Node STMMH06622
  WARNING 02: maximum depth increased for Node STMMH06623
  WARNING 02: maximum depth increased for Node STMMH06624
  WARNING 02: maximum depth increased for Node STMMH06627
  WARNING 02: maximum depth increased for Node STMMH06628
  WARNING 02: maximum depth increased for Node STMMH06629
  WARNING 02: maximum depth increased for Node STMMH06630
  WARNING 02: maximum depth increased for Node STMMH06632
  WARNING 02: maximum depth increased for Node STMMH06633
  WARNING 02: maximum depth increased for Node STMMH06634
  WARNING 02: maximum depth increased for Node STMMH06635
  WARNING 02: maximum depth increased for Node STMMH06636
  WARNING 02: maximum depth increased for Node STMMH06637
  WARNING 02: maximum depth increased for Node STMMH06639
  WARNING 02: maximum depth increased for Node STMMH06640
  WARNING 02: maximum depth increased for Node STMMH06641
  WARNING 02: maximum depth increased for Node STMMH06642
  WARNING 02: maximum depth increased for Node STMMH06643
  WARNING 02: maximum depth increased for Node STMMH06645
  WARNING 02: maximum depth increased for Node STMMH06646
  WARNING 02: maximum depth increased for Node STMMH06647
  WARNING 02: maximum depth increased for Node STMMH06648
  WARNING 02: maximum depth increased for Node STMMH06649
  WARNING 02: maximum depth increased for Node STMMH06650
  WARNING 02: maximum depth increased for Node STMMH06652
  WARNING 02: maximum depth increased for Node STMMH06653
  WARNING 02: maximum depth increased for Node STMMH06654
  WARNING 02: maximum depth increased for Node STMMH06655
  WARNING 02: maximum depth increased for Node STMMH06656
  WARNING 02: maximum depth increased for Node STMMH06657
  WARNING 02: maximum depth increased for Node STMMH06661
  WARNING 02: maximum depth increased for Node STMMH06662
  WARNING 02: maximum depth increased for Node STMMH06665
  WARNING 02: maximum depth increased for Node STMMH06666
  WARNING 02: maximum depth increased for Node STMMH06667
  WARNING 02: maximum depth increased for Node STMMH06668
  WARNING 02: maximum depth increased for Node STMMH06670
  WARNING 02: maximum depth increased for Node STMMH06671
  WARNING 02: maximum depth increased for Node STMMH06672
  WARNING 02: maximum depth increased for Node STMMH06673
  WARNING 02: maximum depth increased for Node STMMH06674
  WARNING 02: maximum depth increased for Node STMMH06675
  WARNING 02: maximum depth increased for Node STMMH06676
  WARNING 02: maximum depth increased for Node STMMH06677
  WARNING 02: maximum depth increased for Node STMMH06678
  WARNING 02: maximum depth increased for Node STMMH06679
  WARNING 02: maximum depth increased for Node STMMH06680
  WARNING 02: maximum depth increased for Node STMMH06681
  WARNING 02: maximum depth increased for Node STMMH06682
  WARNING 02: maximum depth increased for Node STMMH06684
  WARNING 02: maximum depth increased for Node STMMH06686
  WARNING 02: maximum depth increased for Node STMMH06687
  WARNING 02: maximum depth increased for Node STMMH06688
  WARNING 02: maximum depth increased for Node STMMH06689
  WARNING 02: maximum depth increased for Node STMMH06690
  WARNING 02: maximum depth increased for Node STMMH06691
  WARNING 02: maximum depth increased for Node STMMH06692
  WARNING 02: maximum depth increased for Node STMMH06694
  WARNING 02: maximum depth increased for Node STMMH06697
  WARNING 02: maximum depth increased for Node STMMH06698
  WARNING 02: maximum depth increased for Node STMMH06700
  WARNING 02: maximum depth increased for Node STMMH06701
  WARNING 02: maximum depth increased for Node STMMH06708
  WARNING 02: maximum depth increased for Node STMMH06709
  WARNING 02: maximum depth increased for Node STMMH06710
  WARNING 02: maximum depth increased for Node STMMH06711
  WARNING 02: maximum depth increased for Node STMMH06712
  WARNING 02: maximum depth increased for Node STMMH06713
  WARNING 02: maximum depth increased for Node STMMH06714
  WARNING 02: maximum depth increased for Node STMMH06717
  WARNING 02: maximum depth increased for Node STMMH06719
  WARNING 02: maximum depth increased for Node STMMH06720
  WARNING 02: maximum depth increased for Node STMMH06721
  WARNING 02: maximum depth increased for Node STMMH06722
  WARNING 02: maximum depth increased for Node STMMH06723
  WARNING 02: maximum depth increased for Node STMMH06724
  WARNING 02: maximum depth increased for Node STMMH06728
  WARNING 02: maximum depth increased for Node STMMH06729
  WARNING 02: maximum depth increased for Node STMMH06730
  WARNING 02: maximum depth increased for Node STMMH06731
  WARNING 02: maximum depth increased for Node STMMH06740
  WARNING 02: maximum depth increased for Node STMMH06741
  WARNING 02: maximum depth increased for Node STMMH06742
  WARNING 02: maximum depth increased for Node STMMH06743
  WARNING 02: maximum depth increased for Node STMMH06744
  WARNING 02: maximum depth increased for Node STMMH06745
  WARNING 02: maximum depth increased for Node STMMH06746
  WARNING 02: maximum depth increased for Node STMMH06747
  WARNING 02: maximum depth increased for Node STMMH06748
  WARNING 02: maximum depth increased for Node STMMH06750
  WARNING 02: maximum depth increased for Node STMMH06751
  WARNING 02: maximum depth increased for Node STMMH06752
  WARNING 02: maximum depth increased for Node STMMH06753
  WARNING 02: maximum depth increased for Node STMMH06754
  WARNING 02: maximum depth increased for Node STMMH06755
  WARNING 02: maximum depth increased for Node STMMH06756
  WARNING 02: maximum depth increased for Node STMMH06757
  WARNING 02: maximum depth increased for Node STMMH06758
  WARNING 02: maximum depth increased for Node STMMH06759
  WARNING 02: maximum depth increased for Node STMMH06760
  WARNING 02: maximum depth increased for Node STMMH06761
  WARNING 02: maximum depth increased for Node STMMH06762
  WARNING 02: maximum depth increased for Node STMMH06770
  WARNING 02: maximum depth increased for Node STMMH06771
  WARNING 02: maximum depth increased for Node STMMH06773
  WARNING 02: maximum depth increased for Node STMMH06775
  WARNING 02: maximum depth increased for Node STMMH06776
  WARNING 02: maximum depth increased for Node STMMH06777
  WARNING 02: maximum depth increased for Node STMMH06778
  WARNING 02: maximum depth increased for Node STMMH06779
  WARNING 02: maximum depth increased for Node STMMH06780
  WARNING 02: maximum depth increased for Node STMMH06783
  WARNING 02: maximum depth increased for Node STMMH06784
  WARNING 02: maximum depth increased for Node STMMH06785
  WARNING 02: maximum depth increased for Node STMMH06787
  WARNING 02: maximum depth increased for Node STMMH06788
  WARNING 02: maximum depth increased for Node STMMH06790
  WARNING 02: maximum depth increased for Node STMMH06791
  WARNING 02: maximum depth increased for Node STMMH06975
  WARNING 02: maximum depth increased for Node STMMH06976
  WARNING 02: maximum depth increased for Node STMMH06980
  WARNING 02: maximum depth increased for Node STMMH06981
  WARNING 02: maximum depth increased for Node STMMH06982
  WARNING 02: maximum depth increased for Node STMMH06983
  WARNING 02: maximum depth increased for Node STMMH06991
  WARNING 02: maximum depth increased for Node STMMH06992
  WARNING 02: maximum depth increased for Node STMMH06999
  WARNING 02: maximum depth increased for Node STMMH07001
  WARNING 02: maximum depth increased for Node STMMH07002
  WARNING 02: maximum depth increased for Node STMMH07033
  WARNING 02: maximum depth increased for Node STMMH07034
  WARNING 02: maximum depth increased for Node STMMH07035
  WARNING 02: maximum depth increased for Node STMMH07036
  WARNING 02: maximum depth increased for Node STMMH07037
  WARNING 02: maximum depth increased for Node STMMH07038
  WARNING 02: maximum depth increased for Node STMMH07039
  WARNING 02: maximum depth increased for Node STMMH07042
  WARNING 02: maximum depth increased for Node STMMH07043
  WARNING 02: maximum depth increased for Node STMMH07044
  WARNING 02: maximum depth increased for Node STMMH07048
  WARNING 02: maximum depth increased for Node STMMH07049
  WARNING 02: maximum depth increased for Node STMMH07050
  WARNING 02: maximum depth increased for Node STMMH07051
  WARNING 02: maximum depth increased for Node STMMH07052
  WARNING 02: maximum depth increased for Node STMMH07053
  WARNING 02: maximum depth increased for Node STMMH07055
  WARNING 02: maximum depth increased for Node STMMH07057
  WARNING 02: maximum depth increased for Node STMMH07058
  WARNING 02: maximum depth increased for Node STMMH07059
  WARNING 02: maximum depth increased for Node STMMH07060
  WARNING 02: maximum depth increased for Node STMMH07061
  WARNING 02: maximum depth increased for Node STMMH07062
  WARNING 02: maximum depth increased for Node STMMH07091
  WARNING 02: maximum depth increased for Node STMMH07093
  WARNING 02: maximum depth increased for Node STMMH07100
  WARNING 02: maximum depth increased for Node STMMH07101
  WARNING 02: maximum depth increased for Node STMMH07102
  WARNING 02: maximum depth increased for Node STMMH07104
  WARNING 02: maximum depth increased for Node STMMH07127
  WARNING 02: maximum depth increased for Node STMMH07128
  WARNING 02: maximum depth increased for Node STMMH07249
  WARNING 02: maximum depth increased for Node STMMH07412
  WARNING 02: maximum depth increased for Node STMMH07413
  WARNING 02: maximum depth increased for Node STMMH07417
  WARNING 02: maximum depth increased for Node STMMH07420
  WARNING 02: maximum depth increased for Node STMMH07437
  WARNING 02: maximum depth increased for Node STMMH07439
  WARNING 02: maximum depth increased for Node STMMH07447
  WARNING 02: maximum depth increased for Node STMMH07456
  WARNING 02: maximum depth increased for Node STMMH07475
  WARNING 02: maximum depth increased for Node STMMH07613
  WARNING 02: maximum depth increased for Node STMMH07614
  WARNING 02: maximum depth increased for Node STMMH07617
  WARNING 02: maximum depth increased for Node STMMH07645
  WARNING 02: maximum depth increased for Node STMMH07700
  WARNING 02: maximum depth increased for Node STMMH07701
  WARNING 02: maximum depth increased for Node STMMH07702
  WARNING 02: maximum depth increased for Node STMMH07703
  WARNING 02: maximum depth increased for Node STMMH07704
  WARNING 02: maximum depth increased for Node STMMH07705
  WARNING 02: maximum depth increased for Node STMMH07706
  WARNING 02: maximum depth increased for Node STMMH07707
  WARNING 02: maximum depth increased for Node STMMH07708
  WARNING 02: maximum depth increased for Node STMVB00094
  WARNING 02: maximum depth increased for Node STMVB00095
  WARNING 02: maximum depth increased for Node STMVB00096
  WARNING 02: maximum depth increased for Node STMVB00097
  WARNING 02: maximum depth increased for Node STMVB00098
  WARNING 02: maximum depth increased for Node STMVB00099
  WARNING 02: maximum depth increased for Node STMVB00100
  WARNING 02: maximum depth increased for Node STMVB00102
  WARNING 02: maximum depth increased for Node STMVB00106
  WARNING 02: maximum depth increased for Node STMVB00193
  WARNING 02: maximum depth increased for Node STMVB00194
  WARNING 02: maximum depth increased for Node STMVB00195
  WARNING 02: maximum depth increased for Node STMVB00196
  WARNING 02: maximum depth increased for Node STMVB00197
  WARNING 02: maximum depth increased for Node STMVB00216
  WARNING 02: maximum depth increased for Node STMWLD00188
  WARNING 02: maximum depth increased for Node STMWLD00192
  WARNING 02: maximum depth increased for Node STMWW00040
  WARNING 02: maximum depth increased for Node STMWW00155
  WARNING 02: maximum depth increased for Node STMWW00156
  
  *************
  Element Count
  *************
  Number of rain gages ...... 3
  Number of subcatchments ... 3482
  Number of nodes ........... 1111
  Number of links ........... 1675
  Number of pollutants ...... 0
  Number of land uses ....... 0
  
  
  ****************
  Raingage Summary
  ****************
                                                      Data       Recording
  Name                 Data Source                    Type       Interval 
  ------------------------------------------------------------------------
  RG_DN72              \\mainfile-van\Projects\Active\3000714_DNV_SWMM\Model\PCSWMM\AdditionalWork_Scen5_ExDSB\timeseries\DN25_SCALING_200yr_RG_file.dat
  RG_DN82              \\mainfile-van\Projects\Active\3000714_DNV_SWMM\Model\PCSWMM\AdditionalWork_Scen5_ExDSB\timeseries\DN25_SCALING_200yr_RG_file.dat
  RG_VW51              \\mainfile-van\Projects\Active\3000714_DNV_SWMM\Model\PCSWMM\AdditionalWork_Scen5_ExDSB\timeseries\DN25_SCALING_200yr_RG_file.dat
  
  
  ********************
  Subcatchment Summary
  ********************
  Name                       Area     Width   %Imperv    %Slope Rain Gage            Outlet              
  -----------------------------------------------------------------------------------------------------------
  10047-1--1418              0.09     39.72     70.00    8.3740 RG_DN82              DUMMH00701          
  10047-2--1480              0.09     43.07     70.00    6.5840 RG_DN82              DUMMH00701          
  10047-3--6145              0.09     45.48     70.00    6.5950 RG_DN82              STMMH00202          
  10066-B--666               0.08     41.54     70.00   21.1180 RG_DN72              STMMH06447          
  10129-A--6081              0.08     35.52     70.00    9.4590 RG_DN82              STMMH00929          
  10129-B--1326              0.08     34.96     70.00    6.6420 RG_DN82              STMMH00929          
  10129-C--6006              0.08     34.84     70.00    6.5910 RG_DN82              STMMH00929          
  10129-D--1490              0.08     34.78     70.00    5.1290 RG_DN82              STMMH00936          
  10140-C--721               0.18     56.92     70.00   19.5200 RG_DN72              STMMH06332          
  10140-D--910               0.16     57.05     70.00   43.8340 RG_DN72              STMMH06332          
  10159-B--1206              0.07     38.85     70.00    7.8930 RG_DN72              STMVB00197          
  10159-C--5734              0.09     43.58     70.00   26.5550 RG_DN72              STMMH06447          
  10202-A--567               0.08     40.61     70.00    3.9640 RG_DN82              STMMH00924          
  10202-B--741               0.07     31.26     70.00    5.2420 RG_DN82              STMMH00924          
  10202-D--1325              0.08     35.76     70.00    5.5850 RG_DN82              STMMH00936          
  10202-E--1450              0.08     35.80     70.00    4.0190 RG_DN82              STMMH00936          
  10202-F--6154              0.08     35.31     70.00    4.0000 RG_DN82              STMMH00936          
  10202-G--1449              0.08     36.50     70.00    4.5530 RG_DN82              STMMH00937          
  10202-H--1170              0.09     39.88     70.00    4.9940 RG_DN82              STMMH00937          
  10203-1--10783             0.02     21.89     70.00    5.1630 RG_DN82              DUMMH6119           
  10203-1--10784             0.06     32.30     70.00    6.4330 RG_DN82              STMMH00203          
  10203-3--6163              0.14     56.58     70.00    5.9180 RG_DN82              DUMMH6119           
  10203-4--6159              0.14     59.29     70.00    8.6370 RG_DN82              DUMMH6119           
  10203-5--1445              0.14     57.65     70.00   15.8240 RG_DN82              DUMMH6119           
  10207-10--6066             0.07     34.84     70.00   10.2490 RG_DN82              STMMH00210          
  10207-1--1335              0.08     40.45     70.00    7.2490 RG_DN82              STMMH00206          
  10207-11--6065             0.07     35.62     70.00    7.4720 RG_DN82              STMMH00210          
  10207-12--1390             0.08     43.26     70.00    5.8690 RG_DN82              STMMH00210          
  10207-13--536              0.04     29.39     70.00   14.4240 RG_VW51              STMMH00211          
  10207-14--500              0.05     37.80     70.00   20.8430 RG_VW51              STMMH00216          
  10207-15--538              0.04     33.08     70.00   15.1780 RG_DN82              STMMH00216          
  10207-16--630              0.05     36.96     70.00   14.3770 RG_DN82              STMMH00216          
  10207-17--539              0.06     37.44     70.00   15.1830 RG_DN82              STMMH00206          
  10207-18--704              0.08     38.60     70.00    8.9250 RG_DN82              STMMH00206          
  10207-2--1319              0.08     38.25     70.00    5.0740 RG_DN82              STMMH00216          
  10207-21--6080             0.08     38.96     70.00   10.2370 RG_DN82              STMMH00206          
  10207-22--6074             0.10     53.05     70.00    9.0940 RG_DN82              STMMH00205          
  10207-24--6063             0.11     50.06     70.00    8.8500 RG_DN82              STMMH00205          
  10207-25--6058             0.13     57.53     70.00   10.5580 RG_DN82              STMMH00205          
  10207-26--922              0.09     43.63     70.00    8.6500 RG_DN82              STMMH00205          
  10207-27--1468             0.10     46.61     70.00    9.5760 RG_DN82              STMMH00205          
  10207-28--6064             0.07     34.77     70.00    7.6560 RG_DN82              STMMH00200          
  10207-29--10926            0.08     34.89     70.00    6.0650 RG_DN82              STMMH00200          
  10207-30--10927            0.09     37.04     70.00    7.6230 RG_DN82              STMMH00200          
  10207-3--1329              0.08     40.62     70.00    4.3660 RG_DN82              STMMH00216          
  10207-4--1330              0.08     44.65     70.00    5.1490 RG_DN82              STMMH00216          
  10207-5--10923             0.08     36.00     70.00    6.5950 RG_DN82              STMMH00200          
  10207-6--10929             0.07     33.87     70.00    6.1620 RG_DN82              STMMH00200          
  10207-7--10928             0.07     34.57     70.00    7.4110 RG_DN82              STMMH00198          
  10207-8--10931             0.09     39.96     70.00    8.5990 RG_DN82              STMMH00198          
  10207-9--6069              0.09     43.20     70.00   11.6500 RG_DN82              STMMH00210          
  10294-F--169               0.06     41.01     70.00    4.4950 RG_DN72              STMMH06251          
  10294-G--129               0.07     43.84     70.00    3.7790 RG_DN72              STMMH06251          
  10-3309-13--84             0.04     19.83     70.00    5.4790 RG_DN72              STMMH06305          
  10-3309-14--222            0.04     21.05     70.00    7.9510 RG_DN72              STMMH06305          
  10-3309-15--170            0.04     24.59     70.00    7.6800 RG_DN72              STMMH06305          
  10-3309-16--225            0.04     19.26     76.40    5.7090 RG_DN72              STMMH06252          
  10-3309-17--226            0.04     20.10     70.00    3.7150 RG_DN72              STMMH06252          
  10-3309-22--97             0.04     19.93     70.00    6.8030 RG_DN72              STMMH06307          
  10-3309-23--5509           0.04     19.28     70.00   11.4220 RG_DN72              STMMH06307          
  10-3309-24--171            0.04     26.01     70.00    4.3560 RG_DN72              STMMH06307          
  10-3309-25--172            0.04     23.21     70.00    5.2230 RG_DN72              STMMH06307          
  10-3309-26--152            0.04     22.10     70.00    5.8510 RG_DN72              STMMH06306          
  10-3309-27--112            0.04     20.57     70.00    3.6800 RG_DN72              STMMH06306          
  10-3309-B--237             0.06     28.77     70.00    4.5360 RG_DN72              STMMH06252          
  10334-C--1322              0.08     34.09     70.00   12.8270 RG_DN82              DUMMH00751          
  10334-D--1323              0.08     33.70     70.00   11.6820 RG_DN82              DUMMH00751          
  10335-A--5815              0.08     38.42     70.00    3.9700 RG_VW51              DUMMH00924          
  10335-B--631               0.11     47.10     70.00   13.3840 RG_VW51              STMMH00189          
  10-3670-12--1360           0.04     19.64     70.00    6.7780 RG_DN82              STMMH00535          
  10-3670-13--1366           0.04     19.27     70.00    8.1860 RG_DN82              STMMH00535          
  10-3670-17--853            0.04     20.73     70.00    4.4920 RG_DN82              STMMH00536          
  10-3670-18--775            0.04     19.35     70.00    4.8660 RG_DN82              STMMH00536          
  10-3670-33--1361           0.04     19.13     70.00   10.7630 RG_DN82              STMMH00542          
  10-3670-34--1362           0.04     20.02     70.00   19.6370 RG_DN82              STMMH00542          
  10-3670-40--6043           0.04     19.36     70.00    4.1730 RG_DN82              DUMMH6504           
  10-3670-41--6045           0.04     19.73     70.00    7.7260 RG_DN82              STMMH00541          
  10-3670-42--6044           0.05     29.11     92.50   10.8540 RG_DN82              DUMMH00752          
  10-3670-8--1359            0.06     30.88     70.00    9.2560 RG_DN82              DUMMH00748          
  10-3670-9--1367            0.04     19.14     70.00    8.9670 RG_DN82              DUMMH00748          
  10-3670-K--1357            0.07     35.22     70.00    7.4470 RG_DN82              STMMH00535          
  10443-F--6155              0.07     39.80     70.00   11.2310 RG_DN82              DUMMH00745          
  10443-G--6206              0.07     36.62     70.00   10.7680 RG_DN82              DUMMH6103           
  10443-H--6157              0.07     36.07     70.00    9.6520 RG_DN82              DUMMH6104           
  10443-I--1482              0.07     38.08     70.00   10.5770 RG_DN82              STMMH00882          
  10443-J--763               0.07     37.90     70.00    4.0620 RG_DN82              STMMH00879          
  10443-K--1392              0.07     35.71     70.00    7.9260 RG_DN82              STMMH00879          
  10443-L--836               0.07     36.16     70.00    4.8820 RG_DN82              STMMH00878          
  10443-M--928               0.07     37.78     70.00    5.0180 RG_DN82              STMMH00878          
  10-4680-15--10590          0.05     27.69    100.00    2.9890 RG_DN72              STMMH06587          
  10-4680-18--10539          0.04     19.80     90.00    2.3970 RG_DN72              STMMH06587          
  10-4680-19--10574          0.04     19.68     90.00    3.4790 RG_DN72              STMMH06590          
  10-4680-20--5668           0.04     19.19     95.30    2.3490 RG_DN72              STMMH06590          
  10-4680-A--10626           0.08     36.67     99.20    2.6070 RG_DN72              STMMH06587          
  10-4680-E--5643            0.10     43.98     92.70    1.8370 RG_DN72              STMMH06590          
  10-4680-E--5666            0.10     43.27     96.60    2.4960 RG_DN72              STMMH06590          
  10-4740-15--1531           0.13     34.01     73.00    8.8030 RG_VW51              DUMMH00988          
  10-4740-16--5761           0.11     32.74     84.50    8.9770 RG_VW51              DUMMH00988          
  10-4740-23--1183           0.07     38.46     98.10    4.9930 RG_VW51              STMMH07444          
  10-4740-A--1508            0.32     74.45     50.90    9.6280 RG_VW51              STMMH07116          
  10537-B--640               0.13     54.79     70.00    4.3480 RG_DN82              STMMH00928          
  10537-C--1353              0.09     40.12     70.00   10.9220 RG_DN82              STMMH00928          
  10537-D--646               0.10     43.90     70.00    5.2510 RG_DN82              STMMH00928          
  10557-N--1397              0.08     33.44     70.00   15.0020 RG_DN82              STMMH00879          
  10557-O--1395              0.08     33.72     70.00    5.2050 RG_DN82              STMMH00879          
  10557-P--1321              0.08     34.44     70.00    8.4700 RG_DN82              DUMMH00751          
  10580-I--1168              0.09     41.73     70.00    5.3800 RG_DN82              STMMH00928          
  10580-J--681               0.08     36.36     70.00    4.6580 RG_DN82              STMMH00928          
  10580-K--1491              0.08     35.26     70.00    5.2340 RG_DN82              STMMH00927          
  10580-L--6308              0.08     36.13     70.00    4.0510 RG_DN82              STMMH00927          
  10580-M--6310              0.08     35.48     70.00    3.8920 RG_DN82              STMMH00927          
  10580-N--5752              0.07     32.46     70.00    4.6850 RG_DN82              STMMH00927          
  10580-O--1320              0.07     33.09     70.00    4.9800 RG_DN82              STMMH00927          
  10596-38--15105            0.20     58.76     99.20    2.9450 RG_DN72              STMMH06299          
  10596-38--15181            0.41     94.37     96.80    2.4820 RG_DN72              DUMMH6389           
  106-8716-14--10802         0.08     43.01     70.00    5.1450 RG_VW51              STMMH00121          
  106-8716-17--10747         0.03     24.33     70.00    7.8310 RG_VW51              STMMH00123          
  10-7820-A--1364            0.06     31.07     70.00    5.0780 RG_DN82              DUMMH6504           
  10-7820-B--1363            0.06     31.06     70.00    6.5450 RG_DN82              DUMMH6504           
  10-7820-C--1384            0.06     30.23     70.00    9.4290 RG_DN82              STMMH00542          
  10-7820-D--1385            0.06     31.39     70.00    7.1470 RG_DN82              STMMH00542          
  10-7820-E--1358            0.06     30.85     70.00    7.3670 RG_DN82              STMMH00543          
  10-7820-F--1317            0.06     29.97     70.00    4.8190 RG_DN82              STMMH00543          
  10-7820-G--1328            0.07     36.20     70.00    5.5070 RG_DN82              STMMH00543          
  10816-1--1080              0.09     40.38     70.00    8.0330 RG_VW51              STMMH00134          
  10816-2--1084              0.09     37.41     70.00    6.0030 RG_VW51              STMMH00134          
  10816-3--6031              0.09     35.89     70.00    6.0930 RG_VW51              STMMH00135          
  10816-4--1079              0.07     31.20     70.00    3.8920 RG_VW51              STMMH00135          
  10816-5--1075              0.09     38.27     70.00    4.9370 RG_VW51              STMMH00135          
  10816-6--10749             0.09     40.96     70.00    4.3380 RG_VW51              STMMH00135          
  10816-9--1034              0.13     54.01     70.00    7.6330 RG_VW51              STMMH07044          
  10-8312-1--460             0.06     35.95     70.00    3.7030 RG_DN72              STMFIT00046         
  10-8312-2--459             0.06     36.48     70.00    4.1020 RG_DN72              STMFIT00046         
  10-8312-3--425             0.06     36.89     70.00    3.3740 RG_DN72              STMFIT00046         
  10-8312-4--463             0.06     36.87     70.00    4.1370 RG_DN72              STMFIT00046         
  10-8312-5--462             0.06     36.82     70.00    4.4770 RG_DN72              STMMH06631          
  10-8312-6--464             0.06     36.80     70.00    4.1940 RG_DN72              STMMH06631          
  10-8312-7--10423           0.06     36.60     70.00    4.9430 RG_DN72              STMMH06631          
  10-8312-8--461             0.06     35.90     70.00    4.5310 RG_DN72              STMMH06631          
  10846-1--10383             0.34     77.60     85.00    4.4880 RG_VW51              STMMH06295          
  10846-2--10384             0.36     74.92     91.40    5.5740 RG_VW51              STMMH06289          
  10846-3--5561              0.09     44.07     94.50   10.2190 RG_VW51              STMMH07560          
  10848-11--6073             0.14     55.29     70.00    8.1350 RG_DN82              STMMH00205          
  10848-12--6059             0.07     36.96     70.00   13.3210 RG_DN82              STMMH00215          
  10848-14--756              0.10     41.16     70.00    5.3190 RG_DN82              STMMH00215          
  10848-8--15462             0.08     37.95     70.00   12.2300 RG_DN82              STMMH00212          
  10848-9--15461             0.08     35.87     70.00    7.9770 RG_DN82              STMMH00201          
  10849-C--10847             0.15     55.91     81.10   13.9540 RG_VW51              STMMH06390          
  10849-C--15451             0.13     45.23     28.90   13.1640 RG_VW51              STMMH06389          
  10849-D--15490             0.07     41.61     70.00    4.2520 RG_VW51              STMMH06385          
  10849-E--10878             0.04     29.10     73.20    6.6860 RG_VW51              STMMH06385          
  10849-E--15500             0.04     28.39     70.00    5.3850 RG_VW51              STMMH06388          
  10849-F--10870             0.09     37.17     70.00    4.4590 RG_VW51              STMMH06388          
  10849-G--10849             0.08     31.73     70.00    5.7370 RG_VW51              STMMH06388          
  10849-I--15447             0.07     29.56     70.00   15.0980 RG_VW51              STMMH06389          
  10849-J--15411             0.08     35.03     70.00   10.7120 RG_VW51              STMMH06381          
  10865-A--818               0.10     44.99     70.00   14.6830 RG_DN82              STMMH00213          
  10865-B--1394              0.09     41.98     70.00    8.9780 RG_DN82              STMMH00213          
  10865-C--6199              0.08     37.54     70.00    5.0660 RG_DN82              STMMH00213          
  10865-D--6200              0.08     37.87     70.00   12.7830 RG_DN82              STMMH00212          
  10865-E--6077              0.08     39.31     70.00   10.2950 RG_DN82              STMMH00212          
  10865-F--15429             0.08     40.55     70.00   17.0210 RG_DN82              STMMH00212          
  10865-G--10932             0.08     38.29     70.00   12.4330 RG_DN82              STMMH00213          
  10865-H--6075              0.08     38.08     70.00    7.5890 RG_DN82              STMMH00213          
  10865-I--6076              0.07     37.18     70.00   11.6740 RG_DN82              STMMH00213          
  10865-J--6060              0.07     36.10     70.00   13.1660 RG_DN82              STMMH00214          
  10941-S--680               0.10     44.70     70.00   11.5810 RG_DN82              DUMMH00751          
  10941-T--1393              0.08     33.75     70.00    6.5250 RG_DN82              STMMH00879          
  10948-1--647               0.02     21.27     70.00   17.1700 RG_DN82              DUMMH6181           
  10948-2--648               0.02     21.27     70.00   21.0690 RG_DN82              DUMMH6095           
  10948-3--759               0.01     16.79     70.00   18.7560 RG_DN82              DUMMH6095           
  10966-P--1310              0.07     33.35     70.00    4.9080 RG_DN82              STMMH00927          
  10966-Q--923               0.07     33.12     70.00    4.6420 RG_DN82              STMMH00927          
  10966-V--737               0.10     42.20     70.00    5.2730 RG_DN82              STMMH00928          
  10966-W--749               0.10     41.91     70.00    4.3360 RG_DN82              STMMH00928          
  10980-A--537               0.12     56.57     70.00   13.0080 RG_VW51              STMMH00194          
  10980-B--1028              0.08     39.00     70.00    6.5150 RG_VW51              STMMH00193          
  10980-C--5822              0.09     41.15     70.00    4.3750 RG_VW51              STMMH00192          
  10-983-BEX--512            0.14     55.88     70.00   47.2830 RG_VW51              STMMH06322          
  10-BCP35440-B--1507        0.12     66.18     95.00   10.0730 RG_VW51              DUMMH00984          
  10-BCP50143-1--744         0.04     19.10     70.00   13.7060 RG_DN82              STMMH00545          
  10-BCP50143-2--750         0.04     19.50     70.00   11.6190 RG_DN82              STMMH00545          
  11003-A--6040              0.08     38.27     70.00    6.5210 RG_DN82              STMMH00207          
  11003-C--10885             0.09     44.24     70.00    7.5680 RG_VW51              STMMH00199          
  11023-10--6005             0.07     35.51     70.00   10.6990 RG_DN82              STMMH00207          
  11023-11--6002             0.07     35.47     70.00    6.5530 RG_DN82              STMMH00207          
  11023-12--10881            0.08     37.68     70.00    7.7330 RG_DN82              STMMH00198          
  11023-1--628               0.07     38.57     70.00    8.6720 RG_VW51              STMMH00211          
  11023-2--1143              0.09     48.22     70.00    6.3180 RG_VW51              STMMH00211          
  11023-3--1466              0.12     48.81     70.00   11.3190 RG_VW51              STMMH00217          
  11023-4--1164              0.10     47.83     70.00   11.2930 RG_VW51              STMMH00217          
  11023-5--1467              0.16     49.10     70.00   11.7670 RG_VW51              STMMH00218          
  11023-6--1465              0.11     46.20     70.00    7.8160 RG_VW51              STMMH00208          
  11023-7--1334              0.08     46.60     70.00   15.3390 RG_VW51              STMMH00209          
  11023-8--6070              0.08     36.86     70.00    4.7130 RG_VW51              STMMH00208          
  11023-9--6052              0.07     36.28     70.00    6.3690 RG_DN82              STMMH00208          
  11039-A--10781             0.04     18.04     70.00    4.3010 RG_DN82              STMMH00226          
  11039-A--6153              0.03     17.28     70.00    4.0360 RG_DN82              STMMH00226          
  11039-B--10782             0.03     18.83     70.00    7.7060 RG_DN82              STMMH00226          
  11039-B--10785             0.01     10.62     70.00    9.4290 RG_DN82              DUMMH6119           
  11039-B--6162              0.09     41.89     70.00    6.7880 RG_DN82              STMMH00203          
  11079-1--651               0.13     47.29     70.00    8.7280 RG_DN82              STMMH00222          
  11080-1--6085              0.08     35.96     70.00    6.9060 RG_DN82              STMMH00929          
  11130-W--791               0.09     41.79     70.00    4.1650 RG_DN82              STMMH00878          
  11-13420-18--5536          0.01      5.65     21.90    3.9200 RG_DN72              STMMH06304          
  11210-A--762               0.32     79.48     10.70    8.9670 RG_DN82              DUMMH6109           
  11214-CAM--1292            0.07     39.22     70.00    6.1120 RG_DN72              STMMH06398          
  11214-DAM--1290            0.09     43.06     70.00    4.3830 RG_DN72              STMMH06344          
  11220-A--5879              0.07     37.91     70.00   16.8670 RG_VW51              DUMMH00968          
  11220-B--5878              0.08     38.59     70.00   16.0970 RG_VW51              STMMH06742          
  11245-F--667               0.11     47.98     70.00   14.4130 RG_DN72              DUMMH01338          
  11253-2--1020              0.08     37.72     70.00   24.5070 RG_VW51              STMMH00165          
  11253-2--5992              0.07     37.31     70.00   12.4740 RG_VW51              STMMH00178          
  1-1263-10--5533            0.04     19.63     70.00    5.4090 RG_DN72              STMMH06245          
  1-1263-13--10235           0.04     20.98     70.00    4.0080 RG_DN72              STMMH06245          
  1-1263-14--10244           0.04     21.44     70.00    4.5210 RG_DN72              STMFIT00175         
  1-1263-15--10287           0.04     23.73     70.00    5.2800 RG_DN72              STMFIT00175         
  1-1263-1--5535             0.04     20.41     70.00    4.9040 RG_DN72              STMMH06247          
  1-1263-16--10259           0.04     24.79     70.00    5.2290 RG_DN72              STMFIT00175         
  1-1263-17--10283           0.04     25.52     70.00    5.4340 RG_DN72              STMMH06233          
  1-1263-25--10346           0.04     19.29     74.10    5.2420 RG_DN72              STMFIT00175         
  1-1263-2--5532             0.04     21.09     70.00    4.9650 RG_DN72              STMMH06247          
  1-1263-26--15101           0.04     19.74     70.00    4.0160 RG_DN72              STMFIT00175         
  1-1263-27--10345           0.04     19.52     70.00    3.3400 RG_DN72              STMFIT00175         
  1-1263-32--5548            0.04     18.52     70.00    7.8050 RG_DN72              STMMH06238          
  1-1263-33--5552            0.04     19.99     70.00    5.1880 RG_DN72              STMMH06238          
  1-1263-34--10237           0.04     18.84     70.00    5.8130 RG_DN72              STMMH06237          
  1-1263-35--10233           0.04     19.38     70.00    4.7730 RG_DN72              STMMH06237          
  1-1263-36--10238           0.04     19.37     70.00    4.3590 RG_DN72              STMMH06237          
  1-1263-37--5534            0.04     20.41     71.40    3.7120 RG_DN72              STMMH06237          
  1-1263-5--10336            0.04     19.66     70.00    4.0500 RG_DN72              STMMH06244          
  1-1263-6--10234            0.04     19.80     70.00    4.5290 RG_DN72              STMMH06244          
  1-1263-7--5538             0.04     19.29     70.10    4.0060 RG_DN72              STMMH06244          
  1-1263-8--10337            0.04     20.72     70.00    4.8860 RG_DN72              STMMH06245          
  1-1263-9--10232            0.04     20.58     74.40    4.4490 RG_DN72              STMMH06245          
  1-1263-A--10291            0.06     35.38     95.00    2.1140 RG_DN72              STMMH06233          
  1-1263-A--10292            0.06     33.16     97.50    2.3970 RG_DN72              STMMH06239          
  1-1263-D--5530             0.04     21.08     70.00    3.7060 RG_DN72              STMMH06244          
  11264-H--15471             0.09     40.47     70.00    6.0250 RG_DN82              DUMMH00715          
  11270-D--1339              0.22     64.83     70.00    6.6790 RG_DN82              STMMH00757          
  11296-1--743               0.09     31.23     70.00    8.9410 RG_DN82              STMMH00223          
  11310-I--15463             0.05     32.27     70.00    3.6110 RG_DN82              DUMMH00715          
  11310-I--15464             0.05     30.65     70.00    3.6480 RG_DN82              DUMMH00715          
  11310-J--10756             0.11     44.77     70.00    4.3760 RG_DN82              DUMMH00715          
  11310-L--10818             0.09     40.33     70.00    8.2960 RG_DN82              DUMMH00723          
  11-3309-19--230            0.03     18.69     70.00    4.7280 RG_DN72              STMMH06304          
  11-3309-20--232            0.04     20.18     70.00    6.2710 RG_DN72              STMMH06252          
  11-3309-21--234            0.04     19.79     70.00    9.0450 RG_DN72              STMMH06252          
  11-3309-22--235            0.04     20.27     70.00    6.5980 RG_DN72              STMMH06252          
  11-3309-23--236            0.03     15.68     70.00    3.4460 RG_DN72              STMMH06252          
  11-3309-24--111            0.04     23.02     70.00    7.2370 RG_DN72              STMMH06305          
  11-3309-25--103            0.04     20.82     70.00    6.8040 RG_DN72              STMMH06305          
  11-3412-26--844            0.08     30.95     70.00    6.0880 RG_DN72              STMMH06413          
  11-4240-1--725             0.06     37.48     70.00    4.0060 RG_DN72              STMMH06413          
  11-4680-1--327             0.05     27.48     98.30    1.5170 RG_DN72              STMMH06578          
  11-4680-2--5598            0.04     20.51     95.60    3.2140 RG_DN72              STMMH06578          
  11-4680-3--320             0.04     19.67     90.00    2.6980 RG_DN72              STMMH06578          
  11-4680-6--315             0.04     19.33     90.00    3.4190 RG_DN72              STMMH06590          
  11-4680-7--317             0.05     26.71     90.00    3.5210 RG_DN72              STMMH06590          
  11-4680-A--319             0.07     35.36     92.60    2.4820 RG_DN72              STMMH06578          
  11470-F--5674              0.06     30.18     70.00    6.9290 RG_VW51              STMMH06207          
  11470-G--10391             0.06     30.83     70.00    6.8180 RG_VW51              STMMH06207          
  11471-A--703               0.15     63.51     70.00   11.1300 RG_DN82              STMMH00215          
  11471-B--768               0.06     37.35     70.00   25.7030 RG_DN82              STMMH00214          
  11-4740-10--10797          0.05     28.07      0.00   35.2610 RG_VW51              STMMH06395          
  11-4740-11--10850          0.05     27.67     70.00   30.3390 RG_VW51              STMMH06395          
  11-4740-12--10796          0.04     25.07     70.00   21.2020 RG_VW51              STMMH06396          
  11-4740-13--10795          0.05     25.56     70.00   13.0590 RG_VW51              STMMH06383          
  11-4740-14--6303           0.05     27.38     70.00    5.1790 RG_VW51              STMMH06383          
  11-4740-15--15415          0.05     28.13     70.00    4.5550 RG_VW51              STMMH06384          
  11-4740-16--6193           0.05     27.95     70.00    4.9720 RG_VW51              STMMH06384          
  11-4740-17--10851          0.02     14.18     70.00    6.5270 RG_VW51              STMMH06384          
  11-4740-17--10852          0.03     15.28     70.00    3.8620 RG_VW51              STMMH06384          
  11-4740-18--6302           0.05     28.39     70.00    4.2370 RG_VW51              STMMH06384          
  11-4740-19--1518           0.05     27.81     70.00    4.1920 RG_VW51              STMMH06385          
  11-4740-20--15412          0.05     28.35     70.00    3.9500 RG_VW51              STMMH06385          
  11-4740-21--15414          0.05     28.61     70.00    5.3900 RG_VW51              STMMH06385          
  11-4740-22--15470          0.05     28.44     70.00    5.4000 RG_VW51              STMMH06385          
  11-4740-6--10863           0.05     28.06      0.80   27.8970 RG_VW51              STMMH06393          
  11-4740-7--10848           0.05     32.48      0.40   29.9200 RG_VW51              STMMH06393          
  11-4740-8--6189            0.05     30.74      0.00   34.1670 RG_VW51              STMMH06393          
  11-4740-9--15409           0.05     28.12      0.00   36.6560 RG_VW51              STMMH06395          
  11491-A--10750             0.08     37.08     70.00    5.0370 RG_DN82              STMMH00212          
  11491-B--10819             0.09     41.63     70.00    5.2110 RG_DN82              STMMH00212          
  11518-1--5730              0.07     35.67     66.80    5.5700 RG_VW51              STMMH07047          
  1-15384-G--1548            0.04     16.76      1.40    9.0720 RG_VW51              DUMMH01308          
  11577-10--10913            0.08     45.25     70.00   24.1850 RG_VW51              STMMH00177          
  11577-11--15354            0.07     35.30     70.00   11.4000 RG_VW51              STMMH00180          
  11577-12--15468            0.07     35.05     70.00   25.1250 RG_VW51              STMMH00180          
  11577-13--10944            0.07     35.56     70.00   33.6760 RG_VW51              STMMH00179          
  11577-14--10943            0.07     34.90     70.00   38.3740 RG_VW51              STMMH00173          
  11577-15--10914            0.07     37.15     70.00   43.1830 RG_VW51              STMMH00172          
  11577-1--5818              0.09     41.16     70.00    8.3420 RG_VW51              STMMH00176          
  11577-16--10887            0.07     36.94     70.00   45.8050 RG_DN82              STMMH00172          
  11577-17--6071             0.08     38.47     70.00   37.7280 RG_DN82              DUMMH00659          
  11577-18--6039             0.07     35.53     70.00   17.4560 RG_DN82              DUMMH00659          
  11577-19--5807             0.07     35.39     70.00   30.6070 RG_DN82              STMMH00170          
  11577-20--1157             0.09     41.27     70.00   33.6230 RG_DN82              STMMH00170          
  11577-21--984              0.12     51.01     70.00   29.5970 RG_DN82              STMMH00167          
  11577-22--1158             0.12     48.31     70.00   30.3600 RG_DN82              STMMH00167          
  11577-23--981              0.10     37.47     70.00   32.4890 RG_DN82              STMMH00166          
  11577-24--937              0.10     41.97     70.00   27.6840 RG_DN82              STMMH00166          
  11577-25--679              0.10     44.87     70.00   23.9620 RG_DN82              STMMH00160          
  11577-2--5820              0.08     37.81     70.00    7.9760 RG_VW51              STMMH00177          
  11577-3--5994              0.10     45.34     70.00   15.8570 RG_VW51              STMMH00195          
  11577-4--5999              0.08     43.93     70.00   20.3760 RG_VW51              STMMH00177          
  11577-5--10889             0.08     43.34     70.00   26.4000 RG_VW51              STMMH00181          
  11577-6--15353             0.09     46.69     70.00   33.0450 RG_VW51              STMMH00180          
  11577-6--15355             0.01      9.17     70.00   24.3630 RG_VW51              STMMH00181          
  11577-7--10888             0.10     51.27     70.00   17.5040 RG_VW51              STMMH00179          
  11577-8--10809             0.14     54.46     70.00    6.6090 RG_VW51              STMMH00179          
  11577-9--10779             0.34     87.27     70.00   28.9900 RG_DN82              DUMMH6133           
  1-1614-11--15082           0.04     22.72     70.00    4.2960 RG_DN72              DUMMH01329          
  1-1614-12--15081           0.04     20.95     70.00    3.4710 RG_DN72              DUMMH01329          
  1-1614-13--15051           0.04     20.36     70.00    2.8310 RG_DN72              DUMMH01329          
  1-1614-14--15085           0.04     19.74     70.00    3.9200 RG_DN72              STMFIT00178         
  1-1614-15--15086           0.04     19.39     76.80    3.2540 RG_DN72              STMFIT00178         
  1-1614-16--15107           0.03     18.75     70.00    3.9140 RG_DN72              STMFIT00178         
  1-1614-17--15184           0.03     18.49     77.00    4.6350 RG_DN72              STMFIT00178         
  1-1614-18--15268           0.04     20.96     70.00    4.7410 RG_DN72              STMFIT00178         
  1-1614-19--15185           0.04     20.71     70.00    8.9390 RG_DN72              STMMH06303          
  1-1614-20--15330           0.04     20.24     70.00    4.4600 RG_DN72              STMMH06303          
  1-1614-21--15207           0.04     20.11     70.00    4.4650 RG_DN72              STMMH06303          
  1-1614-22--15235           0.04     20.57     70.00    4.2600 RG_DN72              DUMMH6389           
  11669-1--705               0.12     44.11     70.00    7.0460 RG_DN82              STMMH00758          
  11669-2--746               0.12     43.50     70.00    9.0510 RG_DN82              STMMH00222          
  11678-D--15425             0.10     47.95     70.00   12.7270 RG_VW51              STMMH06369          
  11741-2--6049              0.11     47.95     70.00    8.4140 RG_DN82              DUMMH00703          
  11741-3--5751              0.11     47.56     70.00    8.0830 RG_DN82              DUMMH00703          
  11741-4--1165              0.15     54.44     70.00    9.2250 RG_DN82              DUMMH00703          
  11741-5--1486              0.07     33.37     70.00    7.7930 RG_DN82              DUMMH6096           
  11741-6--5749              0.08     34.62     70.00    9.4830 RG_DN82              DUMMH6097           
  11741-7--6061              0.08     34.77     70.00    9.2670 RG_DN82              DUMMH6115           
  11741-8--10778             0.08     34.02     70.00   12.7190 RG_DN82              DUMMH6121           
  11741-9--10815             0.08     38.99     70.00   15.0560 RG_DN82              DUMMH00705          
  11822-A--6003              0.07     39.17     70.00   19.9220 RG_VW51              DUMMH00892          
  11822-B--10803             0.07     35.84     70.00   16.7380 RG_VW51              STMMH00178          
  11822-C--5995              0.07     36.58     70.00   18.4710 RG_VW51              STMMH00164          
  11830-G--10703             0.07     39.16     85.00    3.9710 RG_VW51              DUMMH01309          
  11830-G--10706             0.03     26.86     85.00   18.5160 RG_VW51              DUMMH01309          
  11830-G--10839             0.05     33.02     93.70   18.4320 RG_VW51              DUMMH01309          
  11-8312-1--435             0.06     35.95     70.00    3.8630 RG_DN72              STMMH06631          
  11-8312-2--10488           0.06     36.39     70.00    3.1310 RG_DN72              STMMH06631          
  11-8312-3--429             0.06     36.89     70.00    4.0950 RG_DN72              STMMH06631          
  11-8312-4--430             0.06     36.57     70.00    3.2690 RG_DN72              STMMH06631          
  11-8312-5--5654            0.06     36.77     70.00    3.6640 RG_DN72              STMMH06625          
  11-8312-6--5656            0.06     36.86     70.00    4.5220 RG_DN72              STMMH06625          
  11-8312-7--434             0.06     36.47     70.00    4.5820 RG_DN72              STMMH06625          
  11-8312-8--5657            0.06     37.18     70.00    3.4810 RG_DN72              STMMH06625          
  11868-A--10903             0.07     29.34     70.00   11.1940 RG_VW51              STMMH06335          
  11868-B--15400             0.08     36.77     70.00    6.1340 RG_VW51              STMMH06335          
  11868-C--15384             0.06     28.54     70.00    5.9790 RG_VW51              STMMH06335          
  11900-B--15493             0.05     27.92     70.00    8.0690 RG_VW51              STMMH06379          
  11900-C--15469             0.05     27.99     70.00   11.6790 RG_VW51              STMMH06379          
  11900-D--15483             0.06     33.31     70.00    9.5980 RG_VW51              STMMH06379          
  11900-E--15492             0.06     32.84     70.00    8.7560 RG_VW51              STMMH06394          
  11900-F--10789             0.06     33.48     70.00    9.8620 RG_VW51              STMMH06394          
  11900-G--6168              0.08     40.29      1.30   18.6740 RG_VW51              STMMH06394          
  11912-A--516               0.10     50.25     70.00   14.4310 RG_VW51              STMMH07042          
  11954-B--1424              0.06     30.33     70.00   10.5050 RG_DN82              DUMMH6135           
  11954-B--1444              0.09     39.30     70.00    5.3450 RG_DN82              DUMMH00701          
  11954-C--1446              0.09     42.92     70.00    9.8150 RG_DN82              DUMMH6109           
  11954-C--820               0.11     43.58     70.00    4.0490 RG_DN82              STMMH00226          
  1-19842-20--15333          0.05     22.23     40.40    6.5040 RG_DN72              STMMH06276          
  1-19842-34--15329          0.04     19.04     90.90    7.9450 RG_DN72              STMMH06302          
  12024-17--10228            0.59    110.82     95.00    6.4380 RG_VW51              STMMH07700          
  12091-D--10321             0.14     56.97     95.00    5.0420 RG_DN72              STMMH06239          
  121-3314-1--6271           0.06     26.50     70.00    9.9830 RG_VW51              STMMH06391          
  121-3314-2--15374          0.04     19.62     70.00   11.2800 RG_VW51              STMMH06391          
  121-3314-3--15387          0.04     19.90     70.00    7.5470 RG_VW51              STMMH06774          
  121-3314-6--15485          0.04     27.14     70.00    4.9880 RG_VW51              STMMH06381          
  121-3314-6--15499          0.04     28.50     70.00    7.7150 RG_VW51              STMMH06391          
[...]
  STMMN09196-S     Transect1           25.00  1491.87    12.18   110.00        1 53758.87
  STMMN09230       CIRCULAR             0.38     0.11     0.09     0.38        1     0.66
  STMMN09231       CIRCULAR             0.38     0.11     0.09     0.38        1     0.66
  STMMN09232       CIRCULAR             0.38     0.11     0.09     0.38        1     0.72
  STMMN09278       CIRCULAR             0.60     0.28     0.15     0.60        1     0.39
  STMMN09278-S     Transect1           25.00  1491.87    12.18   110.00        1 88685.39
  STMMN09279       CIRCULAR             0.60     0.28     0.15     0.60        1     0.36
  STMMN09279-S     Transect1           25.00  1491.87    12.18   110.00        1 44447.34
  STMMN09280       CIRCULAR             0.53     0.22     0.13     0.53        1     0.28
  STMMN09280-S     Transect1           25.00  1491.87    12.18   110.00        1 84301.88
  STMMN09281       CIRCULAR             0.38     0.11     0.09     0.38        1     0.12
  STMMN09281-S     Transect1           25.00  1491.87    12.18   110.00        1 160305.04
  STMMN09282       CIRCULAR             0.45     0.16     0.11     0.45        1     0.09
  STMMN09283       CIRCULAR             0.53     0.22     0.13     0.53        1     0.35
  STMMN09283-S     Transect1           25.00  1491.87    12.18   110.00        1 183155.90
  STMMN09284       CIRCULAR             0.53     0.22     0.13     0.53        1     0.38
  STMMN09284-S     Transect1           25.00  1491.87    12.18   110.00        1  4025.26
  STMMN09285       CIRCULAR             0.30     0.07     0.07     0.30        1     0.13
  STMMN09286       CIRCULAR             0.30     0.07     0.07     0.30        1     0.15
  STMMN09287       CIRCULAR             0.25     0.05     0.06     0.25        1     0.06
  STMMN09288       CIRCULAR             1.05     0.87     0.26     1.05        1    12.96
  STMMN09294       CIRCULAR             0.25     0.05     0.06     0.25        1     0.05
  STMMN09315       CIRCULAR             0.38     0.11     0.09     0.38        1     0.11
  STMMN09315-S     Transect1           25.00  1491.87    12.18   110.00        1 87668.21
  STMSUR00092      TRAPEZOIDAL         10.00   250.00     5.03    45.00        1   485.89
  STMSUR00093_1    TRAPEZOIDAL          5.00    75.00     2.74    25.00        1  1777.23
  STMSUR00093_10   TRAPEZOIDAL          5.00    75.00     2.74    25.00        1   437.12
  STMSUR00093_11   TRAPEZOIDAL          5.00    75.00     2.74    25.00        1   486.90
  STMSUR00093_12   TRAPEZOIDAL          5.00    75.00     2.74    25.00        1   463.95
  STMSUR00093_13   TRAPEZOIDAL          5.00    75.00     2.74    25.00        1   386.95
  STMSUR00093_15   TRAPEZOIDAL         10.00   250.00     5.03    45.00        1  1724.35
  STMSUR00093_2    TRAPEZOIDAL          5.00    75.00     2.74    25.00        1   520.24
  STMSUR00093_3    TRAPEZOIDAL          5.00    75.00     2.74    25.00        1   420.51
  STMSUR00093_4    TRAPEZOIDAL          5.00    75.00     2.74    25.00        1   411.85
  STMSUR00093_5    TRAPEZOIDAL         10.00   250.00     5.03    45.00        1   535.06
  STMSUR00093_6    TRAPEZOIDAL          5.00    75.00     2.74    25.00        1   429.11
  STMSUR00093_7    TRAPEZOIDAL          5.00    75.00     2.74    25.00        1   367.07
  STMSUR00093_8    TRAPEZOIDAL          5.00    75.00     2.74    25.00        1   474.84
  STMSUR00093_9    TRAPEZOIDAL          5.00    75.00     2.74    25.00        1   558.03
  STMSUR00407      TRAPEZOIDAL          7.50   135.00     3.69    33.00        1  3766.05
  STMSUR00561      TRAPEZOIDAL          5.00    58.75     2.44    21.75        1   553.14
  STMSUR00563      TRAPEZOIDAL          5.00    58.75     2.44    21.75        1   356.11
  STMSUR00564      TRAPEZOIDAL          5.00    58.75     2.44    21.75        1   701.05
  STMSUR00565      TRAPEZOIDAL          5.00    58.75     2.44    21.75        1   270.44
  STMSUR00621      TRAPEZOIDAL          5.00    58.75     2.44    21.75        1   187.96
  STMSUR00622_1    TRAPEZOIDAL          5.00    58.75     2.44    21.75        1    78.29
  STMSUR00622_2    TRAPEZOIDAL          5.00    58.75     2.44    21.75        1   162.68
  STMSUR00623      TRAPEZOIDAL          5.00    58.75     2.44    21.75        1   114.64
  STMSUR00649      TRAPEZOIDAL          5.00    58.75     2.44    21.75        1   178.90
  STMSUR00650      TRAPEZOIDAL          5.00    58.75     2.44    21.75        1    47.64
  STMSUR00655      TRAPEZOIDAL          5.00    58.75     2.44    21.75        1   230.77
  STMSUR00656      TRAPEZOIDAL          5.00    58.75     2.44    21.75        1   247.91
  STMSUR00657      TRAPEZOIDAL          5.00    58.75     2.44    21.75        1   362.26
  STMSUR00658_1    TRAPEZOIDAL          5.00    58.75     2.44    21.75        1   164.72
  STMSUR00658_2    TRAPEZOIDAL          5.00    58.75     2.44    21.75        1   318.60
  STMSUR00662      TRAPEZOIDAL          5.00    58.75     2.44    21.75        1   113.37
  STMSUR00663      TRAPEZOIDAL          5.00    58.75     2.44    21.75        1   318.64
  STMSUR00664      TRAPEZOIDAL          5.00    58.75     2.44    21.75        1   179.76
  STMSUR02121      TRAPEZOIDAL          1.50     5.62     0.75     6.75        1    59.34
  STMSUR02129      TRAPEZOIDAL          1.50     5.62     0.75     6.75        1    35.80
  STMSUR02135      TRAPEZOIDAL          1.50     5.62     0.75     6.75        1    11.89
  STMSUR02174      TRAPEZOIDAL          1.50     5.62     0.75     6.75        1    10.71
  STMSUR02188_1    TRAPEZOIDAL          1.50     5.62     0.75     6.75        1    43.08
  STMSUR02188_2    TRAPEZOIDAL          1.50     5.62     0.75     6.75        1    43.09
  STMSUR02193      TRAPEZOIDAL          1.50     5.62     0.75     6.75        1     3.27
  STMSUR02201      TRAPEZOIDAL          1.50     5.62     0.75     6.75        1    10.13
  STMSUR02205      TRAPEZOIDAL          1.50     5.62     0.75     6.75        1    21.01
  STMSUR02214      TRAPEZOIDAL          1.50     5.62     0.75     6.75        1    40.42
  STMSUR02228      TRAPEZOIDAL          1.50     5.62     0.75     6.75        1    39.15
  STMSUR02229      TRAPEZOIDAL          1.50     5.62     0.75     6.75        1    21.29
  STMSUR02233      TRAPEZOIDAL          1.50     5.62     0.75     6.75        1    32.90
  STMSUR02240      TRAPEZOIDAL          1.50     5.62     0.75     6.75        1    41.95
  STMSUR02245      TRAPEZOIDAL          1.50     5.62     0.75     6.75        1     4.41
  STMSUR02246      TRAPEZOIDAL          3.00    20.25     1.43    12.75        1   128.15
  STMSUR02253      TRAPEZOIDAL          1.50     5.62     0.75     6.75        1    43.16
  STMSUR02272      TRAPEZOIDAL          1.50     5.62     0.75     6.75        1     9.89
  STMSUR02274      TRAPEZOIDAL          1.50     5.62     0.75     6.75        1    26.16
  STMSUR02275      TRAPEZOIDAL          1.50     5.62     0.75     6.75        1    16.39
  STMSUR02282      TRAPEZOIDAL          1.50     5.62     0.75     6.75        1    13.75
  STMSUR02286      TRAPEZOIDAL          1.50     5.62     0.75     6.75        1    17.53
  STMSUR02287      TRAPEZOIDAL          1.50     5.62     0.75     6.75        1    16.30
  STMSUR02289      TRAPEZOIDAL          1.50     5.62     0.75     6.75        1    19.18
  STMSUR02290      TRAPEZOIDAL          1.50     5.62     0.75     6.75        1    24.06
  STMSUR02291      TRAPEZOIDAL          1.50     5.62     0.75     6.75        1    12.59
  STMSUR02294      TRAPEZOIDAL          1.50     5.62     0.75     6.75        1    19.90
  STMSUR02297      TRAPEZOIDAL          1.50     5.62     0.75     6.75        1     1.18
  STMSUR02298      TRAPEZOIDAL          1.50     5.62     0.75     6.75        1    46.39
  STMSUR02303_1    TRAPEZOIDAL          1.50     5.62     0.75     6.75        1    46.39
  STMSUR02303_2    TRAPEZOIDAL          1.50     5.62     0.75     6.75        1    48.48
  STMSUR02305      TRAPEZOIDAL          1.50     5.62     0.75     6.75        1    22.52
  STMSUR02310      TRAPEZOIDAL          1.50     5.62     0.75     6.75        1    11.28
  STMSUR02311      TRAPEZOIDAL          1.50     5.62     0.75     6.75        1    14.83
  STMSUR02312      TRAPEZOIDAL          1.50     5.62     0.75     6.75        1     3.58
  STMSUR02321      TRAPEZOIDAL          1.50     5.62     0.75     6.75        1    37.05
  STMSUR02330      TRAPEZOIDAL          1.50     5.62     0.75     6.75        1    10.97
  STMSUR02340_2    TRAPEZOIDAL          1.50     5.62     0.75     6.75        1    18.03
  STMSUR02340_3    TRAPEZOIDAL          1.50     5.62     0.75     6.75        1    12.04
  STMSUR02340_4    TRAPEZOIDAL          1.50     5.62     0.75     6.75        1    12.05
  STMSUR02381      TRAPEZOIDAL          1.50     5.62     0.75     6.75        1    43.02
  STMSUR02394      TRAPEZOIDAL          5.00    53.75     2.33    20.75        1   124.14
  STMSUR02395      TRAPEZOIDAL          1.50     5.62     0.75     6.75        1    59.94
  STMSUR02396      TRAPEZOIDAL          1.50     5.62     0.75     6.75        1     7.58
  STMSUR02397      TRAPEZOIDAL          1.50     5.62     0.75     6.75        1    21.43
  STMSUR02398      TRAPEZOIDAL          1.50     5.62     0.75     6.75        1     9.97
  STMSUR02399      TRAPEZOIDAL          1.50     5.62     0.75     6.75        1    12.98
  STMSUR02446      TRAPEZOIDAL          1.50     5.62     0.75     6.75        1    34.28
  STMSUR02452_1    TRAPEZOIDAL          1.50     5.62     0.75     6.75        1    22.37
  STMSUR02452_2    TRAPEZOIDAL          1.50     5.62     0.75     6.75        1    15.63
  STMSUR02453      TRAPEZOIDAL          1.50     5.62     0.75     6.75        1     4.09
  STMSUR02462      TRAPEZOIDAL          1.50     5.62     0.75     6.75        1     9.99
  STMSUR02463_1    TRAPEZOIDAL          1.50     5.62     0.75     6.75        1    23.91
  STMSUR02463_2    TRAPEZOIDAL          1.50     5.62     0.75     6.75        1    12.55
  STMSUR02464      TRAPEZOIDAL          1.50     5.62     0.75     6.75        1    12.48
  STMSUR02468      TRAPEZOIDAL          1.50     5.62     0.75     6.75        1    11.34
  STMSUR02481      TRAPEZOIDAL          4.50    43.88     2.10    18.75        1   335.41
  STMSUR05454      TRAPEZOIDAL          1.50     5.62     0.75     6.75        1    16.32
  STMSUR05455      TRAPEZOIDAL          1.50     5.62     0.75     6.75        1    23.08
  STMSUR05456      TRAPEZOIDAL          1.50     5.62     0.75     6.75        1    26.61
  STMSUR05475      TRAPEZOIDAL          3.00    20.25     1.43    12.75        1   120.77
  STMSUR05476      TRAPEZOIDAL          1.50     5.62     0.75     6.75        1    10.25
  STMSUR05559      TRAPEZOIDAL          3.00    20.25     1.43    12.75        1     3.16
  STMSUR05560      TRAPEZOIDAL          3.00    20.25     1.43    12.75        1    12.52
  STMSUR05565      TRAPEZOIDAL          3.00    20.25     1.43    12.75        1   131.12
  STMSUR05566      TRAPEZOIDAL          3.00    20.25     1.43    12.75        1    98.42
  STMSUR05568      TRAPEZOIDAL          1.50     5.62     0.75     6.75        1    18.03
  STMSUR05570      TRAPEZOIDAL          1.50     5.62     0.75     6.75        1    20.56
  STMSUR05617      TRAPEZOIDAL          1.50     5.62     0.75     6.75        1    12.85
  STMSUR05647      TRAPEZOIDAL          1.50     5.62     0.75     6.75        1    84.43
  STMSUR05648      TRAPEZOIDAL          1.50     5.62     0.75     6.75        1    27.18
  STMSUR05654      TRAPEZOIDAL          1.50     5.62     0.75     6.75        1    35.62
  STMSUR05655      TRAPEZOIDAL          1.50     5.62     0.75     6.75        1     1.29
  STMSUR05656      TRAPEZOIDAL          1.50     5.62     0.75     6.75        1    19.91
  STMSUR05657      TRAPEZOIDAL          1.50     5.62     0.75     6.75        1    19.55
  STMSUR05658      TRAPEZOIDAL          1.50     5.62     0.75     6.75        1    26.24
  STMSUR05659      TRAPEZOIDAL          1.50     5.62     0.75     6.75        1    12.03
  STMSUR05661_1    TRAPEZOIDAL          1.50     5.62     0.75     6.75        1    27.17
  STMSUR05661_2    TRAPEZOIDAL          1.50     5.62     0.75     6.75        1    29.86
  STMSUR05672      TRAPEZOIDAL          1.50     5.62     0.75     6.75        1    55.92
  STMSUR05673      TRAPEZOIDAL          1.50     5.62     0.75     6.75        1    49.54
  STMSUR05674      TRAPEZOIDAL          1.50     5.62     0.75     6.75        1    24.91
  STMSUR05675      TRAPEZOIDAL          1.50     5.62     0.75     6.75        1    13.31
  STMSUR05676      TRAPEZOIDAL          3.00    20.25     1.43    12.75        1   745.33
  STMSUR05677      TRAPEZOIDAL          1.50     5.62     0.75     6.75        1    34.39
  STMSUR05711_1    TRAPEZOIDAL          1.50     5.62     0.75     6.75        1    19.12
  STMSUR05711_2    TRAPEZOIDAL          1.50     5.62     0.75     6.75        1    16.57
  STMSUR05742      TRAPEZOIDAL          1.50     5.62     0.75     6.75        1    11.71
  STMSUR05746      TRAPEZOIDAL          1.50     5.62     0.75     6.75        1    27.00
  STMSUR05748      TRAPEZOIDAL          1.50     5.62     0.75     6.75        1     6.75
  STMSUR05752      TRAPEZOIDAL          1.50     5.62     0.75     6.75        1    17.01
  STMSUR05796      TRAPEZOIDAL          1.50     5.62     0.75     6.75        1    10.41
  STMSUR05801      TRAPEZOIDAL          1.50     5.62     0.75     6.75        1    19.85
  STMSUR05803      TRAPEZOIDAL          1.50     5.62     0.75     6.75        1    10.86
  STMSUR05879      TRAPEZOIDAL          1.50     5.62     0.75     6.75        1    24.44
  STMSUR05880      TRAPEZOIDAL          5.00    58.75     2.44    21.75        1   181.41
  STMSUR05904      TRAPEZOIDAL          1.50     5.62     0.75     6.75        1    75.49
  STMSUR05905      TRAPEZOIDAL          4.50    43.88     2.10    18.75        1  2223.69
  STMSUR05952      TRAPEZOIDAL          1.50     5.62     0.75     6.75        1    66.62
  STMSUR05953      TRAPEZOIDAL          4.50    43.88     2.10    18.75        1  1086.50
  STMSUR05954      TRAPEZOIDAL          4.50    43.88     2.10    18.75        1  1508.52
  STMSUR05957      TRAPEZOIDAL          4.50    43.88     2.10    18.75        1  2161.32
  STMSUR05958      TRAPEZOIDAL          4.50    43.88     2.10    18.75        1   889.50
  STMSUR05959      TRAPEZOIDAL          4.50    43.88     2.10    18.75        1  1380.17
  STMSUR05960      TRAPEZOIDAL          4.50    43.88     2.10    18.75        1  1186.75
  STMSUR05961      TRAPEZOIDAL          4.50    43.88     2.10    18.75        1   558.98
  STMSUR05962      TRAPEZOIDAL          4.50    43.88     2.10    18.75        1   622.05
  STMSUR05964      TRAPEZOIDAL          4.50    43.88     2.10    18.75        1   342.85
  STMSUR06178      TRAPEZOIDAL          1.50     5.62     0.75     6.75        1    15.46
  STMSUR06179      TRAPEZOIDAL          1.50     5.62     0.75     6.75        1    17.15
  STMSUR06184      TRAPEZOIDAL          1.50     5.62     0.75     6.75        1    13.31
  
  
  
  ****************
  Transect Summary
  ****************

  Transect Transect1
  Area:  
              0.0030     0.0072     0.0120     0.0175     0.0237 
              0.0306     0.0381     0.0463     0.0552     0.0648 
              0.0750     0.0859     0.0975     0.1097     0.1227 
              0.1363     0.1506     0.1655     0.1811     0.1974 
              0.2144     0.2321     0.2504     0.2694     0.2891 
              0.3094     0.3304     0.3521     0.3745     0.3975 
              0.4212     0.4456     0.4707     0.4964     0.5229 
              0.5500     0.5777     0.6062     0.6353     0.6651 
              0.6955     0.7266     0.7585     0.7909     0.8241 
              0.8579     0.8924     0.9276     0.9635     1.0000 
  Hrad:  
              0.0310     0.0620     0.0896     0.1149     0.1387 
              0.1614     0.1834     0.2047     0.2256     0.2462 
              0.2664     0.2864     0.3062     0.3258     0.3453 
              0.3647     0.3840     0.4032     0.4223     0.4414 
              0.4603     0.4793     0.4982     0.5170     0.5358 
              0.5546     0.5734     0.5921     0.6108     0.6294 
              0.6481     0.6667     0.6853     0.7039     0.7225 
              0.7411     0.7596     0.7782     0.7967     0.8152 
              0.8337     0.8522     0.8707     0.8892     0.9077 
              0.9262     0.9446     0.9631     0.9816     1.0000 
  Width: 
              0.1038     0.1221     0.1404     0.1587     0.1770 
              0.1953     0.2135     0.2318     0.2501     0.2684 
              0.2867     0.3050     0.3233     0.3416     0.3599 
              0.3781     0.3964     0.4147     0.4330     0.4513 
              0.4696     0.4879     0.5062     0.5245     0.5428 
              0.5610     0.5793     0.5976     0.6159     0.6342 
              0.6525     0.6708     0.6891     0.7074     0.7257 
              0.7439     0.7622     0.7805     0.7988     0.8171 
              0.8354     0.8537     0.8720     0.8903     0.9086 
              0.9268     0.9451     0.9634     0.9817     1.0000 

  Transect TransectOverflow
  Area:  
              0.0198     0.0396     0.0594     0.0792     0.0990 
              0.1188     0.1387     0.1585     0.1784     0.1982 
              0.2181     0.2380     0.2579     0.2778     0.2977 
              0.3176     0.3375     0.3574     0.3774     0.3973 
              0.4173     0.4373     0.4572     0.4772     0.4972 
              0.5172     0.5372     0.5573     0.5773     0.5973 
              0.6174     0.6374     0.6575     0.6776     0.6977 
              0.7178     0.7379     0.7580     0.7781     0.7982 
              0.8184     0.8385     0.8587     0.8788     0.8990 
              0.9192     0.9394     0.9596     0.9798     1.0000 
  Hrad:  
              0.0220     0.0439     0.0657     0.0875     0.1091 
              0.1306     0.1521     0.1735     0.1948     0.2160 
              0.2371     0.2581     0.2791     0.3000     0.3207 
              0.3415     0.3621     0.3826     0.4031     0.4235 
              0.4438     0.4640     0.4841     0.5042     0.5242 
              0.5441     0.5639     0.5837     0.6033     0.6230 
              0.6425     0.6619     0.6813     0.7006     0.7199 
              0.7390     0.7581     0.7771     0.7961     0.8150 
              0.8338     0.8525     0.8712     0.8898     0.9083 
              0.9268     0.9452     0.9635     0.9818     1.0000 
  Width: 
              0.9785     0.9789     0.9793     0.9798     0.9802 
              0.9807     0.9811     0.9815     0.9820     0.9824 
              0.9829     0.9833     0.9837     0.9842     0.9846 
              0.9851     0.9855     0.9859     0.9864     0.9868 
              0.9873     0.9877     0.9881     0.9886     0.9890 
              0.9895     0.9899     0.9903     0.9908     0.9912 
              0.9916     0.9921     0.9925     0.9930     0.9934 
              0.9938     0.9943     0.9947     0.9952     0.9956 
              0.9960     0.9965     0.9969     0.9974     0.9978 
              0.9982     0.9987     0.9991     0.9996     1.0000 
  
  
  *********************
  Rainfall File Summary
  *********************
  Station    First        Last         Recording   Periods    Periods    Periods
  ID         Date         Date         Frequency  w/Precip    Missing    Malfunc.
  -------------------------------------------------------------------------------

  
  ERROR 317: cannot open rainfall data file \\mainfile-van\Projects\Active\3000714_DNV_SWMM\Model\PCSWMM\AdditionalWork_Scen5_ExDSB\timeseries\DN25_SCALING_200yr_RG_file.dat.

  Analysis begun on:  Sat Nov 30 08:09:57 2019
  Analysis ended on:  Sat Nov 30 08:10:07 2019
  Total elapsed time: 00:00:10