
  EPA STORM WATER MANAGEMENT MODEL - VERSION 5.1 (Build 5.1.013)
  --------------------------------------------------------------

  WARNING 04: minimum elevation drop used for Conduit 19000152
  WARNING 03: negative offset ignored for Link 19000215
  WARNING 03: negative offset ignored for Link 19000241
  WARNING 03: negative offset ignored for Link 19000374
  WARNING 04: minimum elevation drop used for Conduit 19000374
  WARNING 03: negative offset ignored for Link 19000618
  WARNING 03: negative offset ignored for Link 19000618
  WARNING 02: maximum depth increased for Node 10001373
  
  *********************************************************
  NOTE: The summary statistics displayed in this report are
  based on results found at every computational time step,  
  not just on results from each reporting time step.
  *********************************************************
  
  ****************
  Analysis Options
  ****************
  Flow Units ............... LPS
  Process Models:
    Rainfall/Runoff ........ YES
    RDII ................... NO
    Snowmelt ............... NO
    Groundwater ............ NO
    Flow Routing ........... YES
    Ponding Allowed ........ NO
    Water Quality .......... NO
  Infiltration Method ...... HORTON
  Flow Routing Method ...... DYNWAVE
  Surcharge Method ......... EXTRAN
  Starting Date ............ 04/01/1980 00:00:00
  Ending Date .............. 11/01/1980 00:00:00
  Antecedent Dry Days ...... 3.0
  Report Time Step ......... 01:00:00
  Wet Time Step ............ 01:00:00
  Dry Time Step ............ 05:00:00
  Routing Time Step ........ 30.00 sec
  Variable Time Step ....... YES
  Maximum Trials ........... 8
  Number of Threads ........ 1
  Head Tolerance ........... 0.001524 m
  
  
  **************************        Volume         Depth
  Runoff Quantity Continuity     hectare-m            mm
  **************************     ---------       -------
  Total Precipitation ......      1781.888       551.800
  Evaporation Loss .........         0.000         0.000
  Infiltration Loss ........      1430.632       443.026
  Surface Runoff ...........       348.886       108.040
  Final Storage ............         3.516         1.089
  Continuity Error (%) .....        -0.064
  
  
  **************************        Volume        Volume
  Flow Routing Continuity        hectare-m      10^6 ltr
  **************************     ---------     ---------
  Dry Weather Inflow .......       540.006      5400.121
  Wet Weather Inflow .......       348.873      3488.764
  Groundwater Inflow .......         0.000         0.000
  RDII Inflow ..............         0.000         0.000
  External Inflow ..........         0.000         0.000
  External Outflow .........       557.087      5570.925
  Flooding Loss ............       334.643      3346.464
  Evaporation Loss .........         0.000         0.000
  Exfiltration Loss ........         0.000         0.000
  Initial Stored Volume ....         0.022         0.219
  Final Stored Volume ......         0.108         1.081
  Continuity Error (%) .....        -0.330
  
  
  *************************
  Highest Continuity Errors
  *************************
  Node 14000170 (-7.50%)
  Node 10000162 (2.81%)
  Node 10000369 (-2.31%)
  Node 10001479 (1.47%)
  Node 10000161 (-1.30%)
  
  
  ***************************
  Time-Step Critical Elements
  ***************************
  Link 19000374 (43.75%)
  Link 19001489 (39.65%)
  Link 19000314 (15.34%)
  
  
  ********************************
  Highest Flow Instability Indexes
  ********************************
  Link CENTRAL_HRT_UNDERFLOW (122)
  Link CENTRAL_HRT_INLET (113)
  Link 19001834 (108)
  Link NIAGARA_WWTP_OUTLET2 (107)
  Link NIAGARA_WWTP_INFLOW (93)
  
  
  *************************
  Routing Time Step Summary
  *************************
  Minimum Time Step           :     0.50 sec
  Average Time Step           :    14.43 sec
  Maximum Time Step           :    18.97 sec
  Percent in Steady State     :    -0.00
  Average Iterations per Step :     4.67
  Percent Not Converging      :     9.24
  
  
  ***************************
  Subcatchment Runoff Summary
  ***************************
  
  ------------------------------------------------------------------------------------------------------------------------------
                            Total      Total      Total      Total     Imperv       Perv      Total       Total     Peak  Runoff
                           Precip      Runon       Evap      Infil     Runoff     Runoff     Runoff      Runoff   Runoff   Coeff
  Subcatchment                 mm         mm         mm         mm         mm         mm         mm    10^6 ltr      LPS
  ------------------------------------------------------------------------------------------------------------------------------
  23001921                 551.80       0.00       0.00     542.91       0.00       8.89       8.89        0.00     0.12   0.016
  23001922                 551.80       0.00       0.00     551.80       0.00       0.00       0.00        0.00     0.00   0.000
  23001923                 551.80       0.00       0.00     551.80       0.00       0.00       0.00        0.00     0.00   0.000
  23001924                 551.80       0.00       0.00     542.91       0.00       8.89       8.89        0.00     0.12   0.016
  23001925                 551.80       0.00       0.00     551.80       0.00       0.00       0.00        0.00     0.00   0.000
  23001926                 551.80       0.00       0.00     334.94     214.16       0.00     214.16      848.28   559.10   0.388
  23001927                 551.80       0.00       0.00     467.57      84.15       0.00      84.15       97.86   281.03   0.152
  23001928                 551.80       0.00       0.00     441.44     110.39       0.00     110.39       45.15   150.68   0.200
  23001929                 551.80       0.00       0.00     457.99      93.98       0.00      93.98       32.61   124.26   0.170
  23001930                 551.80       0.00       0.00     457.99      93.95       0.00      93.95       35.33   131.94   0.170
  23001931                 551.80       0.00       0.00     542.91       0.00       8.89       8.89        0.00     0.12   0.016
  23001932                 551.80       0.00       0.00     446.96     104.93       0.00     104.93       70.31   247.94   0.190
  23001933                 551.80       0.00       0.00     446.96     104.81       0.00     104.81      104.18   326.77   0.190
  23001934                 551.80       0.00       0.00     542.91       0.00       8.89       8.89        0.00     0.12   0.016
  23001935                 551.80       0.00       0.00     513.17      38.67       0.00      38.67       43.22   156.02   0.070
  23001936                 551.80       0.00       0.00     507.66      44.26       0.00      44.26       24.68    99.35   0.080
  23001937                 551.80       0.00       0.00     551.80       0.00       0.00       0.00        0.00     0.00   0.000
  23001938                 551.80       0.00       0.00     493.86      59.02       0.00      59.02        9.07    58.11   0.107
  23001939                 551.80       0.00       0.00     524.21      27.65       0.00      27.65       44.96   175.33   0.050
  23001940                 551.80       0.00       0.00     542.91       0.00       8.89       8.89        0.00     0.12   0.016
  23001941                 551.80       0.00       0.00     551.80       0.00       0.00       0.00        0.00     0.00   0.000
  23001942                 551.80       0.00       0.00     519.85      32.10       0.00      32.10       78.01   352.98   0.058
  23001943                 551.80       0.00       0.00     524.21      27.80       0.00      27.80       12.90    64.15   0.050
  23001944                 551.80       0.00       0.00     551.80       0.00       0.00       0.00        0.00     0.00   0.000
  23001945                 551.80       0.00       0.00     474.55      76.97       0.00      76.97      147.78   286.40   0.139
  23001946                 551.80       0.00       0.00     534.14       0.00       0.00       0.00        0.00     0.00   0.000
  23001947                 551.80       0.00       0.00     524.21      28.12       0.00      28.12       60.73   395.27   0.051
  23001948                 551.80       0.00       0.00     514.28      38.81       0.00      38.82       10.99    88.81   0.070
  23001949                 551.80       0.00       0.00     551.80       0.00       0.00       0.00        0.00     0.00   0.000
  23001950                 551.80       0.00       0.00     551.80       0.00       0.00       0.00        0.00     0.00   0.000
  23001951                 551.80       0.00       0.00     529.73      22.67       0.00      22.67        2.94    21.84   0.041
  23001952                 551.80       0.00       0.00     524.21      27.78       0.00      27.78        7.25    35.51   0.050
  23001953                 551.80       0.00       0.00     513.17      38.69       0.00      38.69       20.83    78.41   0.070
  23001954                 551.80       0.00       0.00     532.49      19.31       0.00      19.31       21.01    66.06   0.035
  23001955                 551.80       0.00       0.00     446.96     105.17       0.00     105.17      103.07   429.68   0.191
  23001956                 551.80       0.00       0.00     475.65      76.82       0.00      76.82       35.84   184.34   0.139
  23001957                 551.80       0.00       0.00     496.62      56.03       0.00      56.03       54.60   321.67   0.102
  23001958                 551.80       0.00       0.00     293.56     255.88       0.00     255.88     1348.92  1186.63   0.464
  23001959                 551.80       0.00       0.00     551.80       0.00       0.00       0.00        0.00     0.00   0.000
  23001960                 551.80       0.00       0.00     511.52      40.29       0.00      40.29       25.51    83.36   0.073
  23001961                 551.80       0.00       0.00     551.80       0.00       0.00       0.00        0.00     0.00   0.000
  23001962                 551.80       0.00       0.00     499.38      52.36       0.00      52.36       34.47    96.93   0.095
  23001963                 551.80       0.00       0.00     467.37      84.37       0.00      84.37      152.40   456.75   0.153
  23002083                 551.80       0.00       0.00     551.80       0.00       0.00       0.00        0.00     0.00   0.000
  23002084                 551.80       0.00       0.00     542.91       0.00       8.89       8.89        0.00     0.12   0.016
  23002085                 551.80       0.00       0.00     551.80       0.00       0.00       0.00        0.00     0.00   0.000
  23002086                 551.80       0.00       0.00     516.48      35.61       0.00      35.61        8.58    43.50   0.065
  23002087                 551.80       0.00       0.00     532.49      19.43       0.00      19.43        7.38    34.82   0.035
  
  
  ******************
  Node Depth Summary
  ******************
  
  ---------------------------------------------------------------------------------
                                 Average  Maximum  Maximum  Time of Max    Reported
                                   Depth    Depth      HGL   Occurrence   Max Depth
  Node                 Type       Meters   Meters   Meters  days hr:min      Meters
  ---------------------------------------------------------------------------------
  10000005             JUNCTION     0.32     0.40   188.50   166  01:41        0.40
  10000017             JUNCTION     0.14     0.71   173.90   166  02:09        0.64
  10000018             JUNCTION     0.14     1.20   173.87   166  02:09        1.15
  10000019             JUNCTION     0.14     1.32   173.86   166  02:08        1.27
  10000020             JUNCTION     0.19     1.49   173.85   166  02:08        1.45
  10000021             JUNCTION     0.15     1.65   173.84   166  02:07        1.62
  10000022             JUNCTION     0.18     1.23   173.90   166  02:09        1.17
  10000023             JUNCTION     0.19     1.37   173.88   166  02:11        1.33
  10000024             JUNCTION     0.25     1.51   173.87   166  02:08        1.47
  10000025             JUNCTION     0.01     0.23   174.69   166  01:13        0.22
  10000026             JUNCTION     0.01     0.23   174.92   166  01:11        0.21
  10000027             JUNCTION     0.01     0.23   175.09   166  01:08        0.22
  10000028             JUNCTION     0.01     0.23   175.28   166  01:06        0.22
  10000029             JUNCTION     0.01     0.25   175.46   166  01:03        0.24
  10000131             JUNCTION     0.06     0.36   175.73   166  01:03        0.36
  10000132             JUNCTION     0.08     0.50   178.07   166  02:14        0.48
  10000133             JUNCTION     0.07     0.38   177.12   166  02:14        0.37
  10000134             JUNCTION     0.11     0.77   176.44   166  02:16        0.64
  10000135             JUNCTION     0.09     0.75   176.31   166  02:17        0.62
  10000136             JUNCTION     0.07     0.82   176.05   166  02:18        0.76
  10000140             JUNCTION     0.07     1.27   175.83   166  02:16        1.22
  10000142             JUNCTION     0.24     1.22   173.90   166  02:08        1.17
  10000143             JUNCTION     0.05     0.19   175.79   166  02:06        0.19
  10000144             JUNCTION     0.10     0.37   176.17   166  02:04        0.37
  10000145             JUNCTION     0.09     0.09   190.29     0  00:48        0.09
  10000146             JUNCTION     0.09     0.10   190.00     0  00:53        0.10
  10000147             JUNCTION     0.07     0.27   176.47   166  02:02        0.27
  10000148             JUNCTION     0.08     0.31   176.81   166  02:01        0.31
  10000149             JUNCTION     0.07     0.30   177.10   166  02:00        0.30
  10000150             JUNCTION     0.12     0.32   176.18   166  02:00        0.32
  10000151             JUNCTION     0.12     0.32   175.91   166  02:00        0.32
  10000152             JUNCTION     0.12     0.33   175.69   166  02:01        0.33
  10000153             JUNCTION     0.12     0.32   175.49   166  02:01        0.32
  10000154             JUNCTION     0.11     0.31   175.38   166  02:02        0.30
  10000155             JUNCTION     0.12     0.33   175.25   166  02:03        0.33
  10000156             JUNCTION     0.13     0.35   175.06   166  02:04        0.34
  10000157             JUNCTION     0.12     0.33   174.69   166  02:05        0.32
  10000158             JUNCTION     0.12     0.32   174.41   166  02:09        0.31
  10000159             JUNCTION     0.01     0.23   174.49   166  01:16        0.21
  10000160             JUNCTION     0.01     0.24   174.30   166  01:19        0.22
  10000161             JUNCTION     4.46     5.28   170.35   166  02:15        5.26
  10000162             JUNCTION     4.08     5.01   170.45   166  02:03        4.99
  10000191             JUNCTION     0.10     0.74   170.51   166  02:22        0.69
  10000192             JUNCTION     0.11     0.77   170.44   166  02:22        0.72
  10000193             JUNCTION     0.10     0.80   170.37   166  02:22        0.76
  10000194             JUNCTION     0.12     0.84   170.30   166  02:20        0.81
  10000195             JUNCTION     0.16     0.84   170.20   166  02:18        0.83
  10000196             JUNCTION     1.42     4.84   172.99   166  01:18        4.84
  10000197             JUNCTION     1.63     4.81   172.75   166  01:44        4.80
  10000198             JUNCTION     1.89     5.00   172.68   166  01:18        5.00
  10000199             JUNCTION     1.92     4.96   172.60   166  02:08        4.95
  10000200             JUNCTION     1.96     4.91   172.51   166  01:57        4.89
  10000201             JUNCTION     2.10     4.75   172.21   166  02:08        4.74
  10000202             JUNCTION     0.09     0.10   189.70     0  01:00        0.10
  10000203             JUNCTION     0.10     0.10   189.40     0  01:06        0.10
  10000204             JUNCTION     0.11     0.12   189.32     0  01:06        0.11
  10000259             JUNCTION     0.10     0.10   189.20     0  01:11        0.10
  10000260             JUNCTION     0.10     0.10   188.90     0  01:16        0.10
  10000261             JUNCTION     0.09     0.09   188.64     0  01:22        0.09
  10000262             JUNCTION     0.11     0.19   188.50   166  01:43        0.19
  10000263             JUNCTION     0.12     0.20   188.30   166  01:49        0.20
  10000264             JUNCTION     0.08     0.13   188.03   166  01:50        0.13
  10000265             JUNCTION     0.08     0.13   187.33   166  01:54        0.13
  10000266             JUNCTION     0.08     0.14   186.64   166  01:55        0.14
  10000267             JUNCTION     0.10     0.18   185.68   166  01:59        0.18
  10000268             JUNCTION     0.09     0.15   185.17   166  02:11        0.15
  10000269             JUNCTION     0.09     0.15   184.05   166  02:15        0.15
  10000270             JUNCTION     0.07     0.12   182.85   166  02:16        0.12
  10000271             JUNCTION     0.07     0.13   181.76   166  02:16        0.13
  10000272             JUNCTION     0.08     0.14   180.79   166  02:17        0.14
  10000273             JUNCTION     0.17     0.44   180.44   166  02:53        0.44
  10000274             JUNCTION     0.17     0.44   179.79   166  02:53        0.44
  10000275             JUNCTION     0.17     0.45   179.13   166  02:32        0.45
  10000276             JUNCTION     0.16     0.42   178.55   166  02:33        0.42
  10000277             JUNCTION     0.14     0.38   178.26   166  02:33        0.38
  10000278             JUNCTION     0.15     0.38   177.32   166  02:34        0.38
  10000279             JUNCTION     0.15     0.38   176.25   166  02:35        0.38
  10000280             JUNCTION     0.16     0.42   175.10   166  02:00        0.42
  10000281             JUNCTION     0.18     0.49   174.07   166  02:01        0.49
  10000282             JUNCTION     0.18     0.56   173.59   166  02:03        0.56
  10000283             JUNCTION     0.14     0.43   172.84   112  05:55        0.36
  10000285             JUNCTION     0.06     0.43   184.68   166  02:04        0.42
  10000286             JUNCTION     0.06     0.44   184.13   166  02:04        0.44
  10000287             JUNCTION     0.06     0.44   183.59   166  02:05        0.44
  10000288             JUNCTION     0.06     0.44   183.20   166  02:06        0.43
  10000289             JUNCTION     0.06     0.45   182.23   166  02:08        0.44
  10000290             JUNCTION     0.11     0.30   174.14   166  02:06        0.30
  10000291             JUNCTION     0.12     0.42   173.94   166  02:10        0.34
  10000292             JUNCTION     0.19     0.63   175.03   166  02:18        0.62
  10000293             JUNCTION     0.18     0.57   175.30   166  02:16        0.56
  10000294             JUNCTION     0.20     0.63   175.59   166  02:14        0.62
  10000295             JUNCTION     0.18     0.58   175.84   166  02:12        0.58
  10000296             JUNCTION     0.19     0.61   176.15   166  02:10        0.60
  10000297             JUNCTION     0.16     0.51   176.51   166  02:09        0.51
  10000298             JUNCTION     0.16     0.52   176.93   166  02:07        0.52
  10000299             JUNCTION     0.19     0.60   177.38   166  02:07        0.60
  10000300             JUNCTION     0.18     0.61   177.65   166  02:04        0.61
  10000301             JUNCTION     0.13     0.36   177.83   154  12:55        0.36
  10000302             JUNCTION     0.07     0.42   176.48   166  02:05        0.32
  10000317             JUNCTION     0.08     1.50   176.48   166  02:05        1.40
  10000318             JUNCTION     0.06     0.18   169.54   112  04:32        0.18
  10000366             JUNCTION     0.03     1.69   177.17   166  00:54        1.42
  10000367             JUNCTION     1.74     1.74   192.40     0  00:00        1.74
  10000368             JUNCTION     0.09     0.10   190.60     0  00:44        0.09
  10000369             JUNCTION     3.99     4.93   170.47   166  02:08        4.92
  10000388             JUNCTION     0.11     0.77   171.40   166  02:15        0.73
  10000389             JUNCTION     0.11     0.79   171.30   166  02:16        0.75
  10000390             JUNCTION     0.11     0.79   171.23   166  02:17        0.74
  10000391             JUNCTION     0.12     0.82   171.13   166  02:18        0.77
  10000392             JUNCTION     0.12     0.80   170.98   166  02:20        0.75
  10000393             JUNCTION     0.12     0.79   170.86   166  02:21        0.74
  10000394             JUNCTION     0.11     0.70   171.64   166  02:10        0.68
  10000395             JUNCTION     0.12     0.69   171.51   166  02:13        0.66
  10000396             JUNCTION     0.12     0.76   170.73   166  02:22        0.71
  10000397             JUNCTION     0.11     0.73   170.60   166  02:22        0.68
  10000398             JUNCTION     2.31     4.50   171.74   166  02:09        4.50
  10000399             JUNCTION     2.63     4.17   171.07   166  02:00        4.15
  10000400             JUNCTION     4.10     5.54   170.97   166  01:59        5.53
  10000409             JUNCTION     0.21     0.70   174.95   166  01:00        0.69
  10000410             JUNCTION     0.18     0.85   175.26   166  01:01        0.83
  10000411             JUNCTION     0.18     1.01   175.58   166  01:00        0.98
  10000412             JUNCTION     0.19     1.17   175.88   166  01:00        1.15
  10000413             JUNCTION     0.19     1.21   176.00   166  01:00        1.20
  10000414             JUNCTION     0.19     1.35   176.22   166  01:00        1.33
  10000415             JUNCTION     0.20     1.50   176.53   166  01:00        1.50
  10000416             JUNCTION     0.16     1.71   176.99   166  00:54        1.57
  10000417             JUNCTION     0.13     1.73   177.11   166  00:54        1.52
  10000475             JUNCTION     0.17     0.45   180.45   166  02:54        0.44
  10000476             JUNCTION     0.92     3.15   186.08   166  01:59        3.14
  10000477             JUNCTION     1.03     3.26   186.08   166  02:00        3.26
  10000478             JUNCTION     0.03     3.09   186.08   166  01:58        3.09
  10000484             JUNCTION     0.02     3.27   186.08   166  01:59        3.26
  10000485             JUNCTION     0.10     3.46   185.85   166  01:59        3.45
  10000486             JUNCTION     0.12     3.10   185.22   166  01:52        3.09
  10000487             JUNCTION     0.12     2.86   184.80   166  01:59        2.85
  10000488             JUNCTION     0.12     2.63   184.40   166  01:58        2.62
  10000489             JUNCTION     0.13     2.22   183.69   166  01:58        2.22
  10000490             JUNCTION     0.11     1.77   183.01   166  02:00        1.77
  10000491             JUNCTION     0.11     1.63   182.68   166  01:52        1.61
  10000492             JUNCTION     0.11     1.21   181.93   166  02:03        1.21
  10000493             JUNCTION     0.11     0.83   181.25   166  01:54        0.82
  10000494             JUNCTION     0.17     1.29   180.00   166  01:59        1.29
  10000495             JUNCTION     0.18     1.46   179.89   166  01:56        1.44
  10000503             JUNCTION     0.59     0.59   192.59     0  00:00        0.59
  10000534             JUNCTION     0.19     1.56   179.84   166  02:05        1.55
  10000535             JUNCTION     0.15     0.49   196.57   166  02:06        0.49
  10000536             JUNCTION     0.15     0.50   195.93   166  01:54        0.50
  10000537             JUNCTION     0.15     0.47   195.28   166  02:03        0.47
  10000538             JUNCTION     0.15     0.48   195.15   166  02:34        0.48
  10000545             JUNCTION     0.13     0.42   194.47   166  02:38        0.42
  10000546             JUNCTION     0.12     0.37   193.02   166  02:00        0.37
  10000547             JUNCTION     0.11     0.34   191.39   166  01:47        0.34
  10000548             JUNCTION     0.14     0.42   189.50   166  02:18        0.42
  10000549             JUNCTION     0.13     0.40   188.31   166  02:01        0.40
  10000550             JUNCTION     0.15     0.48   187.19   166  02:02        0.48
  10000551             JUNCTION     0.12     0.35   186.09   166  02:21        0.35
  10000552             JUNCTION     0.14     0.45   185.59   166  02:38        0.45
  10000553             JUNCTION     0.14     0.44   185.00   166  02:03        0.44
  10000554             JUNCTION     0.16     0.54   182.10   166  02:07        0.54
  10000555             JUNCTION     0.06     0.17   181.53   166  02:38        0.17
  10000556             JUNCTION     0.23     1.20   173.90   166  02:09        1.15
  10000557             JUNCTION     0.19     0.93   173.96   166  02:11        0.86
  10000558             JUNCTION     0.19     0.74   174.05   166  02:13        0.68
  10000559             JUNCTION     0.23     0.70   174.12   166  02:13        0.66
  10000560             JUNCTION     0.21     0.63   174.80   166  02:20        0.62
  10000561             JUNCTION     0.15     1.41   173.86   166  02:08        1.36
  10000562             JUNCTION     0.06     0.43   181.52   166  02:09        0.42
  10000563             JUNCTION     0.09     0.51   180.93   166  02:09        0.50
  10000564             JUNCTION     0.07     0.41   180.79   166  02:09        0.41
  10000574             JUNCTION     0.07     0.40   180.31   166  02:10        0.39
  10000575             JUNCTION     0.08     0.46   180.23   166  02:11        0.45
  10000576             JUNCTION     0.08     0.49   179.43   166  02:12        0.48
  10000577             JUNCTION     0.08     0.50   178.68   166  02:13        0.48
  10000578             JUNCTION     0.07     1.57   176.49   166  02:05        1.47
  10000579             JUNCTION     0.09     1.63   176.49   166  02:06        1.53
  10000580             JUNCTION     0.09     1.44   175.91   166  02:05        1.35
  10000581             JUNCTION     0.09     1.25   175.34   166  02:06        1.17
  10000582             JUNCTION     0.09     1.06   174.79   166  02:05        1.00
  10000583             JUNCTION     0.09     0.86   174.20   166  02:06        0.81
  10000602             JUNCTION     0.09     0.70   173.75   166  02:04        0.66
  10000603             JUNCTION     0.09     0.54   173.30   166  02:05        0.53
  10000604             JUNCTION     0.08     0.62   172.21   166  02:05        0.60
  10000605             JUNCTION     0.11     0.83   172.12   166  02:05        0.81
  10000606             JUNCTION     0.11     0.78   171.96   166  02:06        0.77
  10000607             JUNCTION     0.11     0.74   171.80   166  02:07        0.72
  10000608             JUNCTION     0.37     3.43   185.55   166  01:49        3.43
  10000644             JUNCTION     0.25     3.53   186.08   166  02:00        3.53
  10000645             JUNCTION     3.63     5.08   170.98   166  01:59        5.08
  10001372             JUNCTION     0.17     0.55   173.11    67  23:46        0.54
  10001373             JUNCTION     0.25     0.70   173.43   112  09:00        0.70
  10001374             JUNCTION     0.26     0.71   174.38   112  09:00        0.71
  10001375             JUNCTION     0.27     0.74   174.50   112  08:59        0.74
  10001376             JUNCTION     0.25     0.71   174.56   112  08:59        0.71
  10001479             JUNCTION     4.12     4.99   170.39   166  02:04        4.97
  10001508             JUNCTION     0.26     2.19   175.44   166  01:42        2.19
  10001509             JUNCTION     0.15     0.54   171.82   166  01:44        0.54
  10001510             JUNCTION     0.10     0.32   173.28   166  02:15        0.32
  10001512             JUNCTION     0.11     0.34   170.95   166  01:45        0.34
  10001513             JUNCTION     0.18     0.67   170.59   166  01:53        0.67
  10001514             JUNCTION     0.34     0.92   170.60   166  01:55        0.92
  10001515             JUNCTION     0.18     0.57   169.75   166  01:55        0.57
  10001906             JUNCTION     0.06     0.27   169.67   166  01:56        0.27
  10001907             JUNCTION     0.27     0.75   169.65   166  01:55        0.75
  10001908             JUNCTION     0.01     0.29   163.29   166  02:46        0.29
  10001909             JUNCTION     0.02     0.51   163.81   166  02:45        0.50
  10001910             JUNCTION     0.02     0.44   163.94   166  02:45        0.43
  10001911             JUNCTION     0.00     0.00   168.15     0  00:00        0.00
  10001912             JUNCTION     0.00     0.00   168.32     0  00:00        0.00
  10001913             JUNCTION     0.06     0.50   169.38   166  01:59        0.50
  10001914             JUNCTION     0.47     4.95   168.61   166  02:00        3.36
  10410812             JUNCTION     0.06     0.51   182.01   166  01:57        0.41
  10410813             JUNCTION     0.09     1.11   182.00   166  01:51        1.06
  10410819             JUNCTION     0.04     0.88   172.22   166  02:00        0.88
  10410821             JUNCTION     1.83     3.16   158.72   166  01:00        3.16
  10410852             JUNCTION     0.07     0.24   173.21   112  12:00        0.24
  10410853             JUNCTION     0.12     0.45   171.88   207  21:00        0.45
  1045734              JUNCTION     0.09     0.42   182.20   166  01:59        0.41
  1045736              JUNCTION     0.05     0.47   177.84   166  02:38        0.40
  1046328              JUNCTION     0.03     0.23   154.93   166  01:05        0.23
  1046859              JUNCTION     0.11     0.40   178.38   166  02:03        0.39
  1048818              JUNCTION     0.02     0.10   173.86   166  02:00        0.10
  1048906              JUNCTION     0.01     0.37   157.31   166  01:54        0.37
  1048907              JUNCTION     0.04     0.23   159.70   166  01:00        0.23
  1049082              JUNCTION     0.03     0.09   178.46   166  02:00        0.09
  1049157              JUNCTION     0.03     0.72   154.37   166  02:03        0.70
  1049159              JUNCTION     0.06     3.74   155.24   207  15:56        2.85
  1049163              JUNCTION     0.05     0.18   185.61   166  02:00        0.18
  1049164              JUNCTION     0.97     1.17   183.08   166  02:00        1.17
  1049165              JUNCTION     0.79     0.99   183.08   166  02:01        0.99
  14000170             JUNCTION     0.02     0.61   164.15   166  02:44        0.56
  NIAGARA_WWTP_INLET   JUNCTION     0.01     1.20   171.20   166  02:12        1.18
  10001369             OUTFALL      0.00     0.00   169.60     0  00:00        0.00
  1045729              OUTFALL      0.00     0.00   169.76     0  00:00        0.00
  1045730              OUTFALL      0.00     0.00   153.60     0  00:00        0.00
  1045742              OUTFALL      0.00     0.00   177.77     0  00:00        0.00
  1045743              OUTFALL      0.00     0.15   181.50   166  01:51        0.10
  1048905              OUTFALL      0.01     0.37   156.31   166  01:54        0.37
  HIGH_LIFT_SPS_OVERFLOW_OUTFALL OUTFALL      0.00     0.01   171.01   166  02:08        0.00
  NIAGARA_WWTP_BYPASS_OUTFALL OUTFALL      0.00     0.20   170.70   166  02:12        0.18
  PELLS_CREEK_CSO      OUTFALL      0.00     0.00   178.40     0  00:00        0.00
  14000026_1           STORAGE      0.24     4.80   173.81   112  06:44        4.80
  14000030_1           STORAGE      0.08     3.12   181.85     8  00:51        3.12
  14000073_1           STORAGE      0.06     2.74   172.21    67  23:59        2.74
  14000101_1           STORAGE      0.13     3.80   179.80   166  01:22        3.80
  14000109_1           STORAGE      0.03     3.48   154.36   166  02:04        3.46
  14000131             STORAGE      0.01     3.11   177.93   166  02:37        2.83
  14000137_1           STORAGE      0.08     3.00   164.35     8  00:32        3.00
  14000163             STORAGE      0.13     5.17   165.89   112  08:58        3.19
  14000169             STORAGE      0.06     4.01   158.65   166  01:00        4.01
  
  
  *******************
  Node Inflow Summary
  *******************
  
  -------------------------------------------------------------------------------------------------
                                  Maximum  Maximum                  Lateral       Total        Flow
                                  Lateral    Total  Time of Max      Inflow      Inflow     Balance
                                   Inflow   Inflow   Occurrence      Volume      Volume       Error
  Node                 Type           LPS      LPS  days hr:min    10^6 ltr    10^6 ltr     Percent
  -------------------------------------------------------------------------------------------------
  10000005             JUNCTION      0.00    90.12   166  01:37           0         523       0.002
  10000017             JUNCTION      0.00   283.55   166  02:12           0         527      -0.006
  10000018             JUNCTION      0.00   307.00   166  02:12           0         527      -0.004
  10000019             JUNCTION      0.38   369.75   166  01:33        4.44         532       0.002
  10000020             JUNCTION      0.00   382.80   166  01:31           0         532      -0.139
  10000021             JUNCTION      0.00  1782.31    80  17:32           0    2.82e+03       0.006
  10000022             JUNCTION      0.00  1224.55   166  02:17           0    2.28e+03       0.002
  10000023             JUNCTION      0.00  1241.48   166  02:13           0    2.28e+03      -0.002
  10000024             JUNCTION      0.00  1230.84   166  02:16           0    2.28e+03       0.000
  10000025             JUNCTION      0.00    86.59   166  01:11           0          11      -0.008
  10000026             JUNCTION      0.00    86.95   166  01:09           0          11      -0.018
  10000027             JUNCTION      0.00    87.04   166  01:06           0          11      -0.004
  10000028             JUNCTION      0.00    87.43   166  01:04           0          11       0.010
  10000029             JUNCTION      0.00    87.41   166  01:03           0          11      -0.051
  10000131             JUNCTION     88.81    88.81   166  01:00          11          11       0.003
  10000132             JUNCTION      0.00   496.70   166  02:13           0         316       0.001
  10000133             JUNCTION      0.00   496.33   166  02:14           0         316       0.000
  10000134             JUNCTION      0.00   496.33   166  02:14           0         316       0.000
  10000135             JUNCTION      0.00   496.82   166  02:17           0         316       0.001
  10000136             JUNCTION      0.00   496.56   166  02:16           0         316      -0.001
  10000140             JUNCTION      0.00   496.28   166  02:17           0         316       0.001
  10000142             JUNCTION      0.00  1232.58   166  02:16           0    2.28e+03       0.000
  10000143             JUNCTION      0.00   101.94   166  02:04           0         131       0.002
  10000144             JUNCTION      0.00   102.18   166  02:03           0         131       0.002
  10000145             JUNCTION      0.00    21.25     0  00:46           0         367       0.001
  10000146             JUNCTION      0.00    21.64     0  00:49           0         367       0.001
  10000147             JUNCTION      0.00   102.40   166  02:01           0         131       0.002
  10000148             JUNCTION      0.00   102.80   166  02:00           0         131       0.002
  10000149             JUNCTION    103.17   103.17   166  02:00         131         131      -0.001
  10000150             JUNCTION    168.76   168.76   166  02:00         397         397       0.002
  10000151             JUNCTION      0.00   168.27   166  02:00           0         397       0.021
  10000152             JUNCTION      0.00   167.86   166  02:00           0         397      -0.001
  10000153             JUNCTION      0.00   167.69   166  02:01           0         397      -0.063
  10000154             JUNCTION      0.00   167.66   166  02:02           0         397      -0.000
  10000155             JUNCTION      0.00   167.57   166  02:02           0         397       0.005
  10000156             JUNCTION      0.00   167.39   166  02:03           0         397       0.025
  10000157             JUNCTION      0.00   167.00   166  02:04           0         397       0.002
  10000158             JUNCTION      0.00   166.98   166  02:05           0         397       0.019
  10000159             JUNCTION      0.00    86.48   166  01:14           0          11      -0.012
  10000160             JUNCTION      0.00    86.15   166  01:16           0          11       0.105
  10000161             JUNCTION      0.00   600.04   166  01:59           0         624      -1.286
  10000162             JUNCTION      0.00   448.04   166  02:00           0         566       2.895
  10000191             JUNCTION      0.00   548.91   166  02:22           0         321       0.000
  10000192             JUNCTION      0.00   548.97   166  02:24           0         321       0.001
  10000193             JUNCTION      0.00   549.19   166  02:25           0         321       0.001
  10000194             JUNCTION      0.00   549.52   166  02:26           0         321       0.001
  10000195             JUNCTION      0.00  1120.28   166  02:18           0         953      -0.033
  10000196             JUNCTION    134.49   134.49   166  02:00        94.1        94.1      -0.169
  10000197             JUNCTION      0.00   108.31   166  01:18           0        94.2      -0.398
  10000198             JUNCTION    294.17   401.27   166  02:00         401         496       0.103
  10000199             JUNCTION      0.00   335.63   166  01:18           0         495       0.019
  10000200             JUNCTION      0.00   335.52   166  01:19           0         495       0.024
  10000201             JUNCTION      0.00   335.12   166  01:18           0         495       0.009
  10000202             JUNCTION      0.00    21.72     0  00:57           0         367       0.002
  10000203             JUNCTION      0.00    21.57     0  01:02           0         367       0.001
  10000204             JUNCTION      0.45    20.75     0  01:06        5.55         372       0.001
  10000259             JUNCTION      0.00    21.66     0  01:08           0         372       0.001
  10000260             JUNCTION      0.00    22.33     0  01:14           0         372       0.002
  10000261             JUNCTION      0.00    21.46     0  01:18           0         372       0.001
  10000262             JUNCTION      0.00    21.05     0  01:22           0         372       0.001
  10000263             JUNCTION      0.00    90.00   166  01:41           0         523       0.001
  10000264             JUNCTION      0.00    89.98   166  01:49           0         523       0.000
  10000265             JUNCTION      0.00    89.98   166  01:50           0         523       0.000
  10000266             JUNCTION      0.00    89.98   166  01:54           0         523       0.000
  10000267             JUNCTION      0.00    89.98   166  01:55           0         523       0.001
  10000268             JUNCTION      0.00    89.98   166  02:03           0         523       0.001
  10000269             JUNCTION      0.00    89.98   166  02:11           0         523       0.001
  10000270             JUNCTION      0.00    89.98   166  02:15           0         523       0.001
  10000271             JUNCTION      0.00    89.98   166  02:16           0         523       0.000
  10000272             JUNCTION      0.00    89.98   166  02:16           0         523       0.000
  10000273             JUNCTION      0.00   607.77   166  02:06           0     1.6e+03       0.000
  10000274             JUNCTION      0.00   602.23   166  02:53           0     1.6e+03       0.001
  10000275             JUNCTION      0.00   600.32   166  02:53           0     1.6e+03       0.001
  10000276             JUNCTION      0.00   600.05   166  02:32           0     1.6e+03       0.000
  10000277             JUNCTION      0.57   600.21   166  02:33        7.03    1.61e+03       0.000
  10000278             JUNCTION      0.00   600.20   166  02:33           0    1.61e+03       0.000
  10000279             JUNCTION      0.00   600.20   166  02:34           0    1.61e+03       0.001
  10000280             JUNCTION    101.69   701.81   166  02:00         210    1.82e+03       0.000
  10000281             JUNCTION      0.00   701.49   166  02:00           0    1.82e+03       0.001
  10000282             JUNCTION      0.00   701.30   166  02:02           0    1.82e+03       0.005
  10000283             JUNCTION      0.00   701.15   166  02:03           0    1.82e+03       0.178
  10000285             JUNCTION      0.00   420.88   166  02:04           0         169       0.004
  10000286             JUNCTION      0.00   420.87   166  02:04           0         169       0.000
  10000287             JUNCTION      0.00   420.82   166  02:05           0         169       0.000
  10000288             JUNCTION      0.00   420.82   166  02:05           0         169      -0.000
  10000289             JUNCTION      0.00   420.61   166  02:06           0         169       0.002
  10000290             JUNCTION      0.00   166.86   166  02:06           0         397       0.001
  10000291             JUNCTION      0.00   170.61   166  02:07           0         397       0.017
  10000292             JUNCTION      0.00   734.25   166  02:16           0    1.34e+03       0.001
  10000293             JUNCTION      0.00   734.46   166  02:14           0    1.34e+03       0.001
  10000294             JUNCTION      0.00   734.68   166  02:12           0    1.34e+03       0.001
  10000295             JUNCTION      0.00   734.95   166  02:11           0    1.34e+03       0.001
  10000296             JUNCTION      7.15   735.14   166  02:09        88.2    1.34e+03       0.001
  10000297             JUNCTION      0.00   732.92   166  02:07           0    1.25e+03       0.001
  10000298             JUNCTION      0.00   732.90   166  02:07           0    1.25e+03       0.000
  10000299             JUNCTION      0.00   733.50   166  02:04           0    1.25e+03       0.003
  10000300             JUNCTION      0.00   733.61   166  02:03           0    1.25e+03      -0.014
  10000301             JUNCTION      0.00   443.00     8  00:19           0         937       0.330
  10000302             JUNCTION      9.51     9.51   154  12:00         134         134       0.000
  10000317             JUNCTION      0.00    10.81   166  02:18           0         134       0.000
  10000318             JUNCTION      0.00  1119.99   166  02:17           0         954      -0.287
  10000366             JUNCTION      0.00    40.94   166  00:53           0         0.5       1.218
  10000367             JUNCTION      0.00   750.00   112  06:30           0     2.8e+03      -0.000
  10000368             JUNCTION      0.00    20.08     0  00:44           0         367       0.001
  10000369             JUNCTION      0.00   447.44   166  01:59           0         553      -2.255
  10000388             JUNCTION      0.00   561.07   166  02:06           0         321      -0.001
  10000389             JUNCTION      0.00   558.19   166  02:08           0         321       0.001
  10000390             JUNCTION      0.00   556.11   166  02:09           0         321       0.001
  10000391             JUNCTION      0.00   554.27   166  02:12           0         321       0.000
  10000392             JUNCTION      0.00   552.46   166  02:14           0         321       0.001
  10000393             JUNCTION      0.00   550.83   166  02:16           0         321       0.002
  10000394             JUNCTION      0.00   564.44   166  02:05           0         321       0.001
  10000395             JUNCTION      0.00   563.00   166  02:07           0         321       0.003
  10000396             JUNCTION      0.00   549.83   166  02:18           0         321       0.001
  10000397             JUNCTION      0.00   549.16   166  02:20           0         321       0.001
  10000398             JUNCTION      0.00   334.95   166  01:19           0         495       0.016
  10000399             JUNCTION    125.17   447.34   166  02:00        53.7         549       0.163
  10000400             JUNCTION      0.00   447.22   166  01:59           0         550      -0.555
  10000409             JUNCTION      0.00   440.51   166  01:00           0         869      -0.047
  10000410             JUNCTION      0.00   440.31   166  01:00           0         869       0.006
  10000411             JUNCTION      0.00   440.16   166  01:00           0         869       0.005
  10000412             JUNCTION      0.00   440.36   166  01:00           0         869       0.002
  10000413             JUNCTION     23.76   440.23   166  01:00        60.6         869       0.001
  10000414             JUNCTION      0.00   417.14   166  01:00           0         808       0.011
  10000415             JUNCTION      0.00   417.07   166  01:00           0         808      -0.004
  10000416             JUNCTION      0.00   417.67   166  01:00           0         808       0.000
  10000417             JUNCTION    419.53   419.53   166  01:00         808         809       0.000
  10000475             JUNCTION      0.00    89.98   166  02:17           0         523       0.001
  10000476             JUNCTION      0.00     1.58   166  01:14           0       0.801       1.064
  10000477             JUNCTION      1.17    39.85   166  01:04        14.4        15.2       0.080
  10000478             JUNCTION      0.00    40.02   166  01:04           0        14.5       0.002
  10000484             JUNCTION      0.00    39.43   166  01:04           0        14.6       0.005
  10000485             JUNCTION      0.00   364.20   166  01:59           0         490      -0.000
  10000486             JUNCTION      0.00   351.35   166  02:04           0         490      -0.000
  10000487             JUNCTION      0.00   351.29   166  02:04           0         490      -0.000
  10000488             JUNCTION      0.00   351.40   166  02:04           0         490       0.001
  10000489             JUNCTION     44.08   394.23   166  01:59        29.8         519       0.001
  10000490             JUNCTION      0.00   394.28   166  01:57           0         519       0.000
  10000491             JUNCTION      0.63   394.63   166  01:59        7.77         527      -0.000
  10000492             JUNCTION      0.00   394.44   166  01:59           0         527       0.000
  10000493             JUNCTION      0.00   394.46   166  01:59           0         527       0.001
  10000494             JUNCTION    183.80   578.14   166  02:00         358         885       0.002
  10000495             JUNCTION     67.05   645.61   166  02:00         120    1.01e+03      -0.000
  10000503             JUNCTION      0.00   270.24     8  00:51           0         867       0.000
  10000534             JUNCTION      6.06   648.27   166  01:59        74.7    1.08e+03       0.000
  10000535             JUNCTION      0.00   510.00   166  01:08           0    1.08e+03       0.001
  10000536             JUNCTION      0.00   510.00   166  02:01           0    1.08e+03       0.000
  10000537             JUNCTION      0.00   510.00   166  01:53           0    1.08e+03       0.000
  10000538             JUNCTION      0.00   510.00   166  02:34           0    1.08e+03       0.000
  10000545             JUNCTION      0.00   510.00   166  02:11           0    1.08e+03       0.000
  10000546             JUNCTION      0.00   510.00   166  02:18           0    1.08e+03       0.000
  10000547             JUNCTION      0.00   510.00   166  02:02           0    1.08e+03       0.000
  10000548             JUNCTION      0.00   510.00   166  02:00           0    1.08e+03       0.000
  10000549             JUNCTION      0.00   510.00   166  02:01           0    1.08e+03       0.000
  10000550             JUNCTION      0.00   510.00   166  02:25           0    1.08e+03       0.000
  10000551             JUNCTION      0.00   510.00   166  02:50           0    1.08e+03       0.000
  10000552             JUNCTION      0.00   510.00   166  02:08           0    1.08e+03       0.000
  10000553             JUNCTION      0.00   510.00   166  02:20           0    1.08e+03       0.000
  10000554             JUNCTION      0.00   510.00   166  02:25           0    1.08e+03      -0.000
  10000555             JUNCTION      0.00   510.00   166  02:12           0    1.08e+03       0.000
  10000556             JUNCTION      0.00  1204.93   166  02:15           0    2.28e+03      -0.000
  10000557             JUNCTION      2.22   812.92   166  02:17        27.4    1.41e+03       0.003
  10000558             JUNCTION      0.00   796.28   166  02:17           0    1.39e+03       0.002
  10000559             JUNCTION      2.94   734.49   166  02:20        36.2    1.37e+03      -0.003
  10000560             JUNCTION      0.00   733.97   166  02:18           0    1.34e+03       0.002
  10000561             JUNCTION      0.00   382.86   166  01:40           0         532      -0.000
  10000562             JUNCTION      0.00   420.39   166  02:08           0         169       0.003
  10000563             JUNCTION      0.00   497.21   166  02:09           0         316       0.000
  10000564             JUNCTION      0.00   497.20   166  02:09           0         316       0.000
  10000574             JUNCTION      0.00   497.20   166  02:10           0         316       0.000
  10000575             JUNCTION      0.00   497.19   166  02:10           0         316       0.000
  10000576             JUNCTION      0.00   497.12   166  02:11           0         316       0.000
  10000577             JUNCTION      0.00   496.89   166  02:12           0         316       0.000
  10000578             JUNCTION      0.00    17.25   166  02:21           0         134       0.003
  10000579             JUNCTION    248.18   248.18   166  02:00        75.1         209      -0.008
  10000580             JUNCTION      0.00   247.14   166  02:05           0         209      -0.028
  10000581             JUNCTION      0.00   247.09   166  02:06           0         209      -0.001
  10000582             JUNCTION      0.00   247.07   166  02:06           0         209       0.018
  10000583             JUNCTION      0.00   247.05   166  02:05           0         209       0.006
  10000602             JUNCTION      0.00   247.10   166  02:06           0         209       0.012
  10000603             JUNCTION      0.00   247.10   166  02:06           0         209      -0.010
  10000604             JUNCTION    327.17   570.22   166  02:01         112         321      -0.000
  10000605             JUNCTION      0.00   567.96   166  02:01           0         321      -0.000
  10000606             JUNCTION      0.00   566.78   166  02:03           0         321       0.001
  10000607             JUNCTION      0.00   565.55   166  02:04           0         321       0.000
  10000608             JUNCTION      0.00   364.49   166  02:00           0         490       0.001
  10000644             JUNCTION    363.72   364.43   166  02:00         475         490       0.001
  10000645             JUNCTION      0.00   447.48   166  01:59           0         548      -0.433
  10001372             JUNCTION      0.00   999.80   112  09:00           0    2.66e+03      -0.023
  10001373             JUNCTION      0.00   999.89   112  09:00           0    2.66e+03       0.000
  10001374             JUNCTION      0.00  1003.91   112  08:53           0    2.66e+03       0.003
  10001375             JUNCTION      0.00  1006.16   112  08:53           0    2.66e+03      -0.026
  10001376             JUNCTION      0.00  1000.00   112  08:53           0    2.66e+03       0.021
  10001479             JUNCTION    152.33   599.96   166  01:59        83.4         634       1.490
  10001508             JUNCTION   1220.91  1688.22   166  02:13    2.38e+03     2.7e+03       0.000
  10001509             JUNCTION      0.00  1515.20   166  01:47           0     2.7e+03       0.000
  10001510             JUNCTION      0.00  1515.20   166  02:11           0     2.7e+03       0.000
  10001512             JUNCTION      0.00  1515.30   166  01:45           0     2.7e+03       0.000
  10001513             JUNCTION      0.00  1515.27   166  01:45           0     2.7e+03       0.000
  10001514             JUNCTION      0.00  1515.65   166  01:51           0     2.7e+03       0.001
  10001515             JUNCTION      0.00  1515.28   166  01:55           0     2.7e+03       0.000
  10001906             JUNCTION      0.00   100.00     7  22:44           0         160       0.000
  10001907             JUNCTION      0.00  1615.27   166  01:58           0    2.86e+03      -0.007
  10001908             JUNCTION      0.00   981.10   166  02:45           0         233       0.004
  10001909             JUNCTION      0.00   993.28   166  02:45           0         233       0.005
  10001910             JUNCTION      0.00  1083.36   166  02:44           0         233      -0.032
  10001911             JUNCTION      0.00     0.00     0  00:00           0           0       0.000 ltr
  10001912             JUNCTION      0.00     0.00     0  00:00           0           0       0.000 ltr
  10001913             JUNCTION      0.00  1615.27   166  01:59           0    2.86e+03      -0.004
  10001914             JUNCTION      0.00  1615.26   166  01:59           0    2.86e+03       0.615
  10410812             JUNCTION      0.00  1093.07   166  02:00           0         877       0.018
  10410813             JUNCTION      0.00  1967.83   166  01:58           0         882       0.009
  10410819             JUNCTION      0.00   351.94   113  16:58           0         148      -0.072
  10410821             JUNCTION      0.00   326.19   166  01:00           0         164       0.002
  10410852             JUNCTION    560.06   560.06   112  12:00         861         861      -0.000
  10410853             JUNCTION      0.00   560.06   112  12:00           0         861      -0.000
  1045734              JUNCTION      0.00   752.88   166  02:00           0         877      -0.006
  1045736              JUNCTION      0.00   267.08   166  02:27           0         151       0.003
  1046328              JUNCTION    431.47   431.47   166  02:00         169         169      -0.001
  1046859              JUNCTION    294.78   294.78   166  02:00         316         316       0.003
  1048818              JUNCTION    187.37   187.37   166  02:00         148         148       0.002
  1048906              JUNCTION      0.00  1159.75   166  01:54           0         237       0.003
  1048907              JUNCTION    326.46   326.46   166  01:00         164         164       0.002
  1049082              JUNCTION     86.75    86.75   166  02:00         151         151      -0.000
  1049157              JUNCTION      0.00   431.35   166  02:00           0         169       0.001
  1049159              JUNCTION      0.00  1126.99   207  15:53           0         171      -0.021
  1049163              JUNCTION    592.92   592.92   166  02:00         676         676       0.000
  1049164              JUNCTION      0.00   751.83   166  02:00           0         877       0.007
  1049165              JUNCTION    160.78   160.78   166  02:00         201         201       0.015
  14000170             JUNCTION      0.00  3217.32   166  02:44           0         217      -6.974
  NIAGARA_WWTP_INLET   JUNCTION      0.00  2535.96   207  18:04           0    5.33e+03       0.001
  10001369             OUTFALL       0.00  1579.00    13  17:16           0    5.33e+03       0.000
  1045729              OUTFALL       0.00     0.00     0  00:00           0           0       0.000 ltr
  1045730              OUTFALL       0.00     0.00     0  00:00           0           0       0.000 ltr
  1045742              OUTFALL       0.00     0.00     0  00:00           0           0       0.000 ltr
  1045743              OUTFALL       0.00   129.17   166  01:51           0        0.24       0.000
  1048905              OUTFALL       0.00  1159.50   166  01:54           0         237       0.000
  HIGH_LIFT_SPS_OVERFLOW_OUTFALL OUTFALL       0.00     0.84   166  02:08           0    5.09e-05       0.000
  NIAGARA_WWTP_BYPASS_OUTFALL OUTFALL       0.00   438.86   166  02:12           0        2.75       0.000
  PELLS_CREEK_CSO      OUTFALL       0.00     0.00     0  00:00           0           0       0.000 ltr
  14000026_1           STORAGE       0.00  2108.15    80  17:35           0    2.82e+03      -0.003
  14000030_1           STORAGE       0.00  1647.20   154  14:36           0         881      -0.062
  14000073_1           STORAGE       0.00   418.15    67  23:59           0         148      -0.035
  14000101_1           STORAGE       0.00   647.80   166  01:59           0    1.08e+03      -0.001
  14000109_1           STORAGE       0.00  1188.36   207  15:51           0         171      -0.016
  14000131             STORAGE       0.00   326.90   166  02:28           0         151      -0.000
  14000137_1           STORAGE       0.00  1119.83   166  02:18           0         956      -0.004
  14000163             STORAGE       0.00  1615.24   166  02:02           0    2.63e+03      -1.168
  14000169             STORAGE       0.00   165.16   166  00:23           0         160      -0.003
  
  
  **********************
  Node Surcharge Summary
  **********************
  
  Surcharging occurs when water rises above the top of the highest conduit.
  ---------------------------------------------------------------------
                                               Max. Height   Min. Depth
                                   Hours       Above Crown    Below Rim
  Node                 Type      Surcharged         Meters       Meters
  ---------------------------------------------------------------------
  10000020             JUNCTION       20.29          0.119        6.283
  10000135             JUNCTION        0.25          0.038        1.618
  10000136             JUNCTION        0.71          0.085        0.936
  10000140             JUNCTION        5.09          0.595        0.141
  10000161             JUNCTION     5133.23          4.381        3.208
  10000162             JUNCTION     5132.08          4.107        3.598
  10000196             JUNCTION     5129.07          4.466        0.000
  10000197             JUNCTION     5129.13          4.284        0.164
  10000198             JUNCTION     5129.43          4.471        0.000
  10000199             JUNCTION     5129.48          4.434        0.243
  10000200             JUNCTION     5129.48          4.343        0.697
  10000201             JUNCTION     5129.72          4.226        1.281
  10000366             JUNCTION        1.30          1.013        5.695
  10000367             JUNCTION     5135.60          1.590        0.000
  10000369             JUNCTION     5131.89          4.032        2.450
  10000398             JUNCTION     5130.06          3.974        1.413
  10000399             JUNCTION     5130.39          3.526        1.853
  10000400             JUNCTION     5131.79          4.468        1.434
  10000409             JUNCTION        0.06          0.006        6.244
  10000410             JUNCTION        0.93          0.162        6.465
  10000411             JUNCTION        1.24          0.320        6.000
  10000412             JUNCTION        1.36          0.460        4.860
  10000413             JUNCTION        1.46          0.536        4.924
  10000414             JUNCTION        1.56          0.640        4.048
  10000415             JUNCTION        2.22          0.803        5.580
  10000416             JUNCTION        1.73          1.028        5.390
  10000417             JUNCTION        1.45          1.055        5.700
  10000476             JUNCTION     5127.40          2.655        4.115
  10000477             JUNCTION        1.21          1.727        3.749
  10000478             JUNCTION        1.89          2.562        2.860
  10000484             JUNCTION        2.35          2.749        1.789
  10000485             JUNCTION        2.51          2.675        1.462
  10000486             JUNCTION        3.50          2.596        1.168
  10000487             JUNCTION        3.47          2.365        1.199
  10000488             JUNCTION        3.41          2.133        0.435
  10000489             JUNCTION        3.22          1.725        1.660
  10000490             JUNCTION        2.31          1.274        1.013
  10000491             JUNCTION        2.55          1.126        3.329
  10000492             JUNCTION        2.10          0.712        5.320
  10000493             JUNCTION        1.80          0.335        6.852
  10000495             JUNCTION        2.23          0.490        7.937
  10000503             JUNCTION     5136.00          0.586        0.000
  10000534             JUNCTION        4.54          0.576        6.480
  10000561             JUNCTION        0.14          0.034        6.980
  10000578             JUNCTION        0.86          1.046        2.643
  10000579             JUNCTION        0.93          1.106        2.968
  10000580             JUNCTION        0.87          0.913        4.235
  10000581             JUNCTION        0.82          0.722        5.359
  10000582             JUNCTION        0.76          0.529        5.355
  10000583             JUNCTION        0.70          0.333        5.959
  10000602             JUNCTION        0.63          0.174        5.248
  10000603             JUNCTION        0.24          0.016        5.386
  10000605             JUNCTION        0.08          0.003        6.503
  10000608             JUNCTION        3.18          2.657        0.000
  10000644             JUNCTION        3.13          2.906        1.934
  10000645             JUNCTION     5130.39          3.437        1.508
  10001479             JUNCTION     5132.17          4.085        3.653
  10001508             JUNCTION       75.44          1.520        0.000
  10001914             JUNCTION     5136.00          4.954        5.840
  1049159              JUNCTION       14.01          2.836        4.854
  
  
  *********************
  Node Flooding Summary
  *********************
  
  Flooding refers to all water that overflows a node, whether it ponds or not.
  --------------------------------------------------------------------------
                                                             Total   Maximum
                                 Maximum   Time of Max       Flood    Ponded
                        Hours       Rate    Occurrence      Volume     Depth
  Node                 Flooded       LPS   days hr:min    10^6 ltr    Meters
  --------------------------------------------------------------------------
  10000196                1.27     27.30    166  02:00       0.064     0.000
  10000198                1.45     78.92    166  02:00       0.217     0.000
  10000367             5135.52    730.17    166  02:02    2436.782     0.000
  10000503             5135.46    270.24      8  00:55     867.019     0.000
  10000608                0.26     14.25    166  02:00       0.007     0.000
  10001508                1.24    173.00    166  02:13       0.497     0.000
  14000026_1             17.28    784.19    166  02:15      11.257     0.000
  14000030_1              7.72    887.25    112  05:31       9.998     0.000
  14000073_1              7.47    132.06     67  23:59       1.169     0.000
  14000101_1              1.23    137.56    166  01:59       0.389     0.000
  14000137_1             25.57    676.82    166  02:18      19.035     0.000
  
  
  **********************
  Storage Volume Summary
  **********************
  
  --------------------------------------------------------------------------------------------------
                         Average     Avg  Evap Exfil       Maximum     Max    Time of Max    Maximum
                          Volume    Pcnt  Pcnt  Pcnt        Volume    Pcnt     Occurrence    Outflow
  Storage Unit           1000 m3    Full  Loss  Loss       1000 m3    Full    days hr:min        LPS
  --------------------------------------------------------------------------------------------------
  14000026_1               0.063       5     0     0         1.235     100     112  06:44    1589.49
  14000030_1               0.002       3     0     0         0.062     100       8  00:51    1435.42
  14000073_1               0.000       2     0     0         0.010     100      67  23:59     370.56
  14000101_1               0.007       3     0     0         0.194     100     166  01:22     510.00
  14000109_1               0.001       1     0     0         0.086      88     166  02:04    1113.43
  14000131                 0.000       0     0     0         0.025      90     166  02:37     263.44
  14000137_1               0.004       3     0     0         0.171     100       8  00:32     443.00
  14000163                 0.003       1     0     0         0.119      47     112  08:58    1000.00
  14000169                 0.001       1     0     0         0.058      40     166  01:00     100.00
  
  
  ***********************
  Outfall Loading Summary
  ***********************
  
  -----------------------------------------------------------
                         Flow       Avg       Max       Total
                         Freq      Flow      Flow      Volume
  Outfall Node           Pcnt       LPS       LPS    10^6 ltr
  -----------------------------------------------------------
  10001369             100.00    332.32   1579.00    5331.018
  1045729                0.00      0.00      0.00       0.000
  1045730                0.00      0.00      0.00       0.000
  1045742                0.00      0.00      0.00       0.000
  1045743                0.21     19.27    129.17       0.240
  1048905                7.03    370.72   1159.50     236.891
  HIGH_LIFT_SPS_OVERFLOW_OUTFALL   0.00      0.37      0.84       0.000
  NIAGARA_WWTP_BYPASS_OUTFALL   0.31    159.11    438.86       2.750
  PELLS_CREEK_CSO        0.00      0.00      0.00       0.000
  -----------------------------------------------------------
  System                11.95    881.79   3199.28    5570.899
  
  
  ********************
  Link Flow Summary
  ********************
  
  -----------------------------------------------------------------------------
                                 Maximum  Time of Max   Maximum    Max/    Max/
                                  |Flow|   Occurrence   |Veloc|    Full    Full
  Link                 Type          LPS  days hr:min     m/sec    Flow   Depth
  -----------------------------------------------------------------------------
  10411519             CONDUIT   1188.36   207  15:51      3.86    0.20    1.00
  10411521             CONDUIT      0.00     0  00:00      0.00    0.00    0.03
  10411522             CONDUIT      0.00     0  00:00      0.00    0.00    0.00
  10411523             CONDUIT   1967.83   166  01:58      4.32    0.09    0.46
  10411529             CONDUIT   1093.07   166  02:00      2.90    0.12    0.27
  10413001             CONDUIT    424.14   166  02:00      4.02    0.09    0.90
  10413002             CONDUIT    431.35   166  02:00      3.59    0.15    0.57
  10414018             CONDUIT    160.91   166  01:59      0.49    0.03    0.72
  10414277             CONDUIT    752.88   166  02:00      3.14    0.08    0.23
  10414278             CONDUIT    592.22   166  02:00      2.08    0.04    0.30
  10414538             CONDUIT    973.74   166  02:46      3.59    0.06    0.16
  10414652             CONDUIT     86.68   166  02:00      1.56    0.01    0.26
  10414957             CONDUIT    187.32   166  02:00      4.17    0.02    0.22
  10414991             CONDUIT    165.16   166  00:23      1.16    2.43    1.00
  10414992             CONDUIT      0.00     0  00:00      0.00    0.00    0.00
  10414993             CONDUIT    129.17   166  01:51      1.78    0.06    0.17
  10415071             CONDUIT   1159.50   166  01:54      2.94    0.07    0.18
  10415072             CONDUIT    242.41   166  01:01      0.65    0.75    0.58
  10415073             CONDUIT    326.19   166  01:00      3.01    0.39    0.72
  10417004             CONDUIT    290.61   166  02:03      1.10    0.20    0.28
  10417023             CONDUIT    560.06   112  12:00      2.53    0.05    0.23
  10417026             CONDUIT   1647.20   154  14:36      4.89    0.06    0.87
  19000010             CONDUIT     21.64     0  00:49      0.60    0.01    0.08
  19000011             CONDUIT     21.72     0  00:57      0.58    0.01    0.08
  19000012             CONDUIT     21.57     0  01:02      0.50    0.01    0.08
  19000013             CONDUIT     20.60     0  01:06      0.41    0.01    0.09
  19000045             CONDUIT   1232.58   166  02:16      1.71    0.50    0.88
  19000046             CONDUIT    167.69   166  02:01      0.93    0.39    0.43
  19000047             CONDUIT    167.66   166  02:02      1.02    0.41    0.40
  19000049             CONDUIT     39.58   166  01:04      0.36    0.16    1.00
  19000050             CONDUIT    351.29   166  02:04      1.79    1.51    1.00
  19000051             CONDUIT    351.40   166  02:04      1.79    1.54    1.00
  19000052             CONDUIT    351.26   166  02:04      1.79    1.54    1.00
  19000053             CONDUIT    394.28   166  01:57      2.01    1.72    1.00
  19000054             CONDUIT    394.42   166  01:59      2.01    1.34    1.00
  19000088             CONDUIT    510.00   166  02:12      2.45    0.48    0.48
  19000089             CONDUIT     20.08     0  00:44      1.54    3.12    0.83
  19000090             CONDUIT    510.00   166  01:51      3.04    0.12    0.41
  19000091             CONDUIT    417.14   166  01:00      1.17    1.57    1.00
  19000121             CONDUIT     39.43   166  01:04      0.18    0.07    1.00
  19000125             CONDUIT    646.25   166  01:59      1.34    0.87    1.00
  19000126             CONDUIT    420.87   166  02:04      1.79    0.72    0.64
  19000127             CONDUIT    420.82   166  02:05      1.69    0.77    0.66
  19000128             CONDUIT    335.52   166  01:19      1.55    1.59    1.00
  19000129             CONDUIT    335.12   166  01:18      1.55    1.32    1.00
  19000130             CONDUIT    109.25   166  01:59      0.87    2.87    1.00
  19000131             CONDUIT    101.80   166  02:06      1.55    0.39    0.43
  19000132             CONDUIT    307.00   166  02:12      1.18    0.55    0.92
  19000133             CONDUIT    332.53   166  01:40      0.82    0.19    0.91
  19000134             CONDUIT    497.12   166  02:11      1.85    0.81    0.70
  19000135             CONDUIT    496.89   166  02:12      1.78    0.87    0.73
  19000136             CONDUIT    510.00   166  02:25      1.90    0.65    0.59
  19000137             CONDUIT   1224.55   166  02:17      1.96    0.91    0.89
  19000138             CONDUIT    247.10   166  02:06      1.14    1.24    1.00
  19000139             CONDUIT    247.05   166  02:05      1.14    1.24    1.00
  19000140             CONDUIT    247.07   166  02:06      1.14    1.24    1.00
  19000148             CONDUIT    510.00   166  02:50      1.81    0.71    0.61
  19000149             CONDUIT    510.00   166  02:08      1.89    0.18    0.29
  19000150             CONDUIT    510.00   166  02:20      1.88    0.66    0.59
  19000151             CONDUIT     89.98   166  02:17      0.56    0.04    0.28
  19000152             CONDUIT    104.05   166  03:40      0.42    0.59    0.42
  19000159             CONDUIT    420.21   166  02:09      1.59    0.73    0.69
  19000161             CONDUIT    247.14   166  02:05      1.14    1.22    1.00
  19000163             CONDUIT     17.82   166  02:21      0.49    0.09    1.00
  19000164             CONDUIT     17.25   166  02:21      0.46    0.10    1.00
  19000165             CONDUIT    394.44   166  01:59      2.01    1.50    1.00
  19000166             CONDUIT    394.46   166  01:59      2.01    1.51    1.00
  19000196             CONDUIT    108.21   166  01:18      0.50    0.50    1.00
  19000209             CONDUIT    549.83   166  02:18      0.95    1.15    0.86
  19000210             CONDUIT    550.83   166  02:16      0.93    1.13    0.88
  19000211             CONDUIT    552.46   166  02:14      0.92    1.15    0.90
  19000212             CONDUIT    510.00   166  02:25      2.15    0.55    0.53
  19000213             CONDUIT   1230.84   166  02:16      1.95    0.31    1.00
  19000214             CONDUIT   1241.48   166  02:13      2.35    0.30    0.91
  19000215             CONDUIT     87.41   166  01:03      0.59    0.32    0.32
  19000216             CONDUIT    497.20   166  02:10      2.21    0.68    0.60
  19000217             CONDUIT    497.19   166  02:10      2.08    0.65    0.63
  19000224             CONDUIT    447.48   166  01:59      1.58    0.28    1.00
  19000239             CONDUIT    549.16   166  02:20      0.98    1.15    0.83
  19000241             CONDUIT   1119.83   166  02:18      8.56    0.08    0.59
  19000245             CONDUIT    701.15   166  02:03      2.36    0.42    0.41
  19000246             CONDUIT    600.20   166  02:33      2.14    0.27    0.36
  19000247             CONDUIT    600.02   166  02:33      2.00    0.32    0.38
  19000248             CONDUIT     89.98   166  02:16      1.39    0.03    0.13
  19000249             CONDUIT     89.98   166  02:16      1.56    0.03    0.12
  19000253             CONDUIT     89.98   166  02:03      1.06    0.06    0.15
  19000268             CONDUIT    334.95   166  01:19      1.55    1.52    1.00
  19000288             CONDUIT    167.57   166  02:02      0.99    0.35    0.41
  19000289             CONDUIT    510.00   166  02:02      2.39    0.48    0.49
  19000290             CONDUIT    510.00   166  02:00      2.61    0.42    0.45
  19000291             CONDUIT    510.00   166  02:01      1.99    0.61    0.56
  19000292             CONDUIT    602.23   166  02:53      1.73    0.37    0.42
  19000294             CONDUIT    447.22   166  01:59      3.77    0.09    1.00
  19000296             CONDUIT    322.52   166  02:13      0.72    0.20    1.00
  19000297             CONDUIT    437.67   166  01:02      1.41    1.61    0.81
  19000298             CONDUIT    497.20   166  02:09      1.91    1.03    0.68
  19000299             CONDUIT     87.04   166  01:06      0.72    0.17    0.28
  19000300             CONDUIT     86.59   166  01:11      0.72    0.17    0.28
  19000301             CONDUIT     86.48   166  01:14      0.71    0.17    0.28
  19000302             CONDUIT     86.15   166  01:16      0.70    0.17    0.28
  19000303             CONDUIT     85.80   166  01:19      0.83    0.16    0.25
  19000304             CONDUIT    812.18   166  02:17      1.21    0.43    0.61
  19000305             CONDUIT     40.94   166  00:53      0.20    0.03    1.00
  19000306             CONDUIT    417.67   166  01:00      1.25    0.74    1.00
  19000307             CONDUIT    417.07   166  01:00      1.17    1.18    1.00
  19000308             CONDUIT     21.05     0  01:22      0.54    0.01    0.12
  19000309             CONDUIT     21.25     0  00:46      0.68    0.01    0.08
  19000310             CONDUIT     21.66     0  01:08      0.43    0.02    0.09
  19000311             CONDUIT     22.33     0  01:14      0.49    0.01    0.08
  19000312             CONDUIT     21.46     0  01:18      0.51    0.01    0.08
  19000313             CONDUIT      1.58   166  01:14      0.02    0.01    1.00
  19000314             CONDUIT    647.80   166  01:59      1.33    1.10    1.00
  19000315             CONDUIT    102.18   166  02:03      0.85    0.66    0.71
  19000316             CONDUIT    732.90   166  02:07      1.52    0.49    0.44
  19000317             CONDUIT    102.40   166  02:01      0.95    0.79    0.64
  19000318             CONDUIT    102.80   166  02:00      0.90    0.78    0.68
  19000319             CONDUIT    382.86   166  01:40      0.78    0.20    0.98
  19000320             CONDUIT    855.38   166  02:15      1.17    0.44    0.77
  19000321             CONDUIT    324.26   166  02:13      0.87    0.22    1.00
  19000322             CONDUIT   1238.19   166  02:16      2.47    0.51    1.00
  19000333             CONDUIT    510.00   166  01:53      1.75    0.76    0.63
  19000334             CONDUIT    510.00   166  02:34      1.81    0.74    0.61
  19000335             CONDUIT    510.00   166  02:11      1.80    0.71    0.61
  19000350             CONDUIT    335.63   166  01:18      1.55    1.56    1.00
  19000351             CONDUIT    167.39   166  02:03      0.92    0.39    0.43
  19000352             CONDUIT    167.00   166  02:04      1.03    0.41    0.40
  19000353             CONDUIT    166.98   166  02:05      1.03    0.37    0.40
  19000354             CONDUIT    166.86   166  02:06      1.02    0.36    0.40
  19000358             CONDUIT    334.96   166  01:19      1.55    1.47    1.00
  19000359             CONDUIT    448.04   166  02:00      0.70    0.47    1.00
  19000364             CONDUIT    510.00   166  02:18      2.03    0.59    0.55
  19000365             CONDUIT    420.82   166  02:05      1.70    0.76    0.65
  19000366             CONDUIT    364.49   166  02:00      1.86    1.05    1.00
  19000367             CONDUIT    351.35   166  02:04      1.79    1.13    1.00
  19000368             CONDUIT    364.20   166  01:59      1.68    1.51    1.00
  19000369             CONDUIT    420.61   166  02:06      1.68    0.76    0.66
  19000370             CONDUIT    420.39   166  02:08      1.71    0.77    0.65
  19000371             CONDUIT    554.27   166  02:12      0.94    0.95    0.90
  19000372             CONDUIT    556.11   166  02:09      0.96    1.07    0.88
  19000374             CONDUIT   1119.99   166  02:17      2.71    5.56    0.48
  19000375             CONDUIT     17.15   166  01:59      0.55    2.17    1.00
  19000426             CONDUIT    416.84   166  01:00      1.16    1.63    1.00
  19000427             CONDUIT    440.36   166  01:00      1.23    1.75    1.00
  19000428             CONDUIT    440.16   166  01:00      1.23    1.55    1.00
  19000429             CONDUIT    440.31   166  01:00      1.23    1.44    1.00
  19000430             CONDUIT    440.51   166  01:00      1.23    1.47    1.00
  19000431             CONDUIT    168.27   166  02:00      1.08    0.45    0.45
  19000432             CONDUIT    167.86   166  02:00      0.95    0.38    0.42
  19000433             CONDUIT    548.91   166  02:22      0.98    0.95    0.82
  19000434             CONDUIT     87.43   166  01:04      0.69    0.19    0.29
  19000435             CONDUIT    321.04   166  01:59      1.14    2.35    1.00
  19000439             CONDUIT    732.92   166  02:07      1.58    0.39    0.43
  19000440             CONDUIT     10.81   166  02:18      0.55    0.06    0.81
  19000441             CONDUIT    443.54   154  12:29      1.58    0.19    0.33
  19000442             CONDUIT    510.00   166  02:01      1.78    0.73    0.62
  19000465             CONDUIT    108.31   166  01:18      0.98    1.11    1.00
[...]
  19000318                1.00   0.00  0.00  0.00  1.00  0.00  0.00  0.00  0.99  0.00
  19000319                1.00   0.00  0.00  0.00  1.00  0.00  0.00  0.00  0.98  0.00
  19000320                1.00   0.00  0.00  0.00  1.00  0.00  0.00  0.00  0.98  0.00
  19000321                1.00   0.00  0.00  0.00  0.38  0.00  0.00  0.62  0.00  0.00
  19000322                1.00   0.00  0.00  0.00  0.04  0.96  0.00  0.00  0.00  0.00
  19000333                1.00   0.00  0.00  0.00  0.00  0.00  0.00  1.00  0.00  0.00
  19000334                2.73   0.00  0.00  0.00  0.00  0.00  0.00  1.00  0.00  0.00
  19000335                1.00   0.00  0.00  0.00  0.00  0.00  0.00  1.00  0.00  0.00
  19000350                2.35   0.00  0.00  0.00  1.00  0.00  0.00  0.00  0.00  0.00
  19000351                1.00   0.00  0.00  0.00  1.00  0.00  0.00  0.00  0.00  0.00
  19000352                1.00   0.00  0.00  0.00  0.00  0.00  0.00  1.00  0.00  0.00
  19000353                1.00   0.00  0.00  0.00  0.01  0.00  0.00  0.99  0.00  0.00
  19000354                1.00   0.00  0.00  0.00  0.99  0.00  0.00  0.01  0.00  0.00
  19000358                1.00   0.00  0.00  0.00  1.00  0.00  0.00  0.00  0.00  0.00
  19000359                1.55   0.00  0.00  0.00  1.00  0.00  0.00  0.00  0.00  0.00
  19000364                1.00   0.00  0.00  0.00  0.00  0.00  0.00  1.00  0.00  0.00
  19000365                1.00   0.00  0.00  0.00  0.99  0.01  0.00  0.00  0.09  0.00
  19000366                1.00   0.00  0.00  0.00  1.00  0.00  0.00  0.00  0.41  0.00
  19000367                1.00   0.00  0.00  0.00  0.27  0.73  0.00  0.00  1.00  0.00
  19000368                1.00   0.00  0.00  0.00  0.00  0.00  1.00  0.00  0.00  0.00
  19000369                1.00   0.00  0.00  0.00  1.00  0.00  0.00  0.00  0.97  0.00
  19000370                1.00   0.00  0.00  0.00  0.96  0.04  0.00  0.00  0.00  0.00
  19000371                1.00   0.00  0.00  0.00  1.00  0.00  0.00  0.00  0.99  0.00
  19000372                1.00   0.00  0.00  0.00  1.00  0.00  0.00  0.00  0.00  0.00
  19000374                7.14   0.00  0.00  0.00  0.00  1.00  0.00  0.00  0.00  0.00
  19000375                1.00   0.00  0.00  0.00  1.00  0.00  0.00  0.00  0.00  0.00
  19000426                1.00   0.00  0.00  0.00  1.00  0.00  0.00  0.00  0.54  0.00
  19000427                1.00   0.00  0.00  0.00  1.00  0.00  0.00  0.00  0.00  0.00
  19000428                1.00   0.00  0.00  0.00  1.00  0.00  0.00  0.00  0.00  0.00
  19000429                1.00   0.00  0.00  0.00  1.00  0.00  0.00  0.00  0.00  0.00
  19000430                1.00   0.00  0.00  0.00  1.00  0.00  0.00  0.00  0.98  0.00
  19000431                1.00   0.00  0.00  0.00  0.03  0.00  0.00  0.97  0.00  0.00
  19000432                1.00   0.00  0.00  0.00  0.94  0.00  0.00  0.06  0.00  0.00
  19000433                1.00   0.00  0.00  0.00  1.00  0.00  0.00  0.00  0.00  0.00
  19000434                1.00   0.01  0.00  0.00  0.99  0.00  0.00  0.00  0.02  0.00
  19000435                1.00   0.00  0.00  0.00  1.00  0.00  0.00  0.00  0.00  0.00
  19000439                1.00   0.00  0.00  0.00  1.00  0.00  0.00  0.00  0.00  0.00
  19000440                4.83   0.00  0.00  0.00  0.00  0.00  0.00  1.00  0.00  0.00
  19000441                1.00   0.00  0.00  0.00  0.02  0.00  0.00  0.98  0.00  0.00
  19000442                1.00   0.00  0.00  0.00  0.00  0.00  0.00  1.00  0.00  0.00
  19000465                1.00   0.00  0.00  0.00  1.00  0.00  0.00  0.00  0.00  0.00
  19000503                1.00   0.00  0.00  0.00  0.01  0.00  0.00  0.99  0.00  0.00
  19000504                1.00   0.00  0.00  0.00  0.71  0.00  0.00  0.29  0.01  0.00
  19000505                1.00   0.00  0.00  0.00  1.00  0.00  0.00  0.00  0.00  0.00
  19000506                1.00   0.00  0.00  0.00  1.00  0.00  0.00  0.00  0.01  0.00
  19000507                1.00   0.00  0.00  0.00  0.00  0.00  0.00  1.00  0.00  0.00
  19000508                1.00   0.00  0.00  0.00  1.00  0.00  0.00  0.00  1.00  0.00
  19000509                1.00   0.00  0.00  0.00  0.92  0.08  0.00  0.00  0.40  0.00
  19000510                1.00   0.00  0.00  0.00  0.00  0.00  0.00  1.00  0.00  0.00
  19000511                1.00   0.00  0.00  0.00  0.00  0.00  0.00  1.00  0.00  0.00
  19000551                1.03   0.00  0.00  0.00  0.00  0.00  0.00  1.00  0.00  0.00
  19000585                1.00   0.00  0.00  0.00  0.00  0.00  0.00  1.00  0.00  0.00
  19000587                1.00   0.00  0.00  0.00  0.01  0.99  0.00  0.00  0.00  0.00
  19000588                1.00   0.00  0.00  0.00  1.00  0.00  0.00  0.00  1.00  0.00
  19000589                1.00   0.00  0.00  0.00  1.00  0.00  0.00  0.00  1.00  0.00
  19000606                1.00   0.00  0.00  0.00  1.00  0.00  0.00  0.00  0.00  0.00
  19000607                1.00   0.00  0.00  0.00  1.00  0.00  0.00  0.00  1.00  0.00
  19000608                1.00   0.00  0.00  0.00  1.00  0.00  0.00  0.00  0.99  0.00
  19000609                1.00   0.00  0.00  0.00  0.00  0.00  0.00  1.00  0.00  0.00
  19000610                1.00   0.00  0.00  0.00  0.11  0.00  0.00  0.89  0.00  0.00
  19000611                1.00   0.01  0.00  0.00  0.99  0.00  0.00  0.00  0.36  0.00
  19000612                1.00   0.00  0.00  0.00  1.00  0.00  0.00  0.00  0.00  0.00
  19000613                1.00   0.00  0.00  0.00  0.92  0.08  0.00  0.00  1.00  0.00
  19000615                1.00   0.00  0.00  0.00  1.00  0.00  0.00  0.00  1.00  0.00
  19000618                1.00   0.00  0.00  0.00  1.00  0.00  0.00  0.00  0.00  0.00
  19000619                1.00   0.00  0.00  0.00  1.00  0.00  0.00  0.00  0.92  0.00
  19000620                1.00   0.00  0.00  0.00  1.00  0.00  0.00  0.00  0.98  0.00
  19000621                1.00   0.00  0.00  0.00  1.00  0.00  0.00  0.00  0.00  0.00
  19000622                1.00   0.00  0.00  0.00  1.00  0.00  0.00  0.00  0.97  0.00
  19000666                1.00   0.00  0.00  0.00  1.00  0.00  0.00  0.00  0.96  0.00
  19000667                1.00   0.00  0.00  0.00  1.00  0.00  0.00  0.00  1.00  0.00
  19000668                1.00   0.00  0.00  0.00  0.00  0.00  0.00  1.00  0.00  0.00
  19000669                1.00   0.00  0.00  0.00  1.00  0.00  0.00  0.00  1.00  0.00
  19000670                1.00   0.00  0.00  0.00  0.03  0.00  0.00  0.97  0.00  0.00
  19000671                1.00   0.00  0.00  0.00  1.00  0.00  0.00  0.00  0.99  0.00
  19000672                1.00   0.00  0.00  0.00  0.04  0.00  0.00  0.96  0.00  0.00
  19000673                1.00   0.00  0.00  0.00  1.00  0.00  0.00  0.00  0.98  0.00
  19000674                1.00   0.00  0.00  0.00  1.00  0.00  0.00  0.00  0.88  0.00
  19000679                1.00   0.00  0.00  0.00  1.00  0.00  0.00  0.00  0.00  0.00
  19000684                1.00   0.00  0.00  0.00  1.00  0.00  0.00  0.00  0.99  0.00
  19000686                1.00   0.00  0.00  0.00  0.93  0.07  0.00  0.00  0.00  0.00
  19000687                1.00   0.00  0.00  0.00  0.00  1.00  0.00  0.00  1.00  0.00
  19000688                1.00   0.00  0.00  0.00  0.00  1.00  0.00  0.00  1.00  0.00
  19000689                1.00   0.00  0.00  0.00  0.00  1.00  0.00  0.00  1.00  0.00
  19000690                1.00   0.00  0.00  0.00  1.00  0.00  0.00  0.00  0.99  0.00
  19000691                1.00   0.00  0.00  0.00  1.00  0.00  0.00  0.00  0.99  0.00
  19000692                1.00   0.00  0.00  0.00  1.00  0.00  0.00  0.00  0.00  0.00
  19000693                1.00   0.00  0.00  0.00  0.00  1.00  0.00  0.00  1.00  0.00
  19000694                1.00   0.00  0.00  0.00  0.00  1.00  0.00  0.00  0.00  0.00
  19000695                1.00   0.00  0.00  0.00  0.00  1.00  0.00  0.00  0.00  0.00
  19000696                1.00   0.00  0.00  0.00  0.00  1.00  0.00  0.00  1.00  0.00
  19000823               26.64   0.00  0.00  0.00  0.09  0.91  0.00  0.00  0.04  0.00
  19001284                2.87   0.00  0.00  0.00  1.00  0.00  0.00  0.00  0.00  0.00
  19001285                1.00   0.00  0.00  0.00  1.00  0.00  0.00  0.00  1.00  0.00
  19001336                1.00   0.00  0.00  0.00  0.00  0.00  0.00  1.00  0.00  0.00
  19001337                1.00   0.00  0.00  0.00  0.00  0.00  0.00  1.00  0.00  0.00
  19001338                1.49   0.00  0.00  0.00  1.00  0.00  0.00  0.00  0.01  0.00
  19001339                1.00   0.00  0.00  0.00  1.00  0.00  0.00  0.00  0.00  0.00
  19001447                1.00   0.00  0.00  0.00  1.00  0.00  0.00  0.00  0.00  0.00
  19001448                1.90   0.00  0.00  0.00  1.00  0.00  0.00  0.00  0.00  0.00
  19001487                3.21   1.00  0.00  0.00  0.00  0.00  0.00  0.00  0.00  0.00
  19001488                2.51   1.00  0.00  0.00  0.00  0.00  0.00  0.00  0.00  0.00
  19001489                5.01   0.00  0.00  0.00  0.00  1.00  0.00  0.00  0.00  0.00
  19001490                8.21   0.00  0.00  0.00  0.00  1.00  0.00  0.00  1.00  0.00
  19001493                1.65   0.00  0.00  0.00  0.00  1.00  0.00  0.00  0.00  0.00
  19001494                5.66   0.00  0.00  0.00  0.00  1.00  0.00  0.00  1.00  0.00
  19001495                1.40   0.00  0.00  0.00  1.00  0.00  0.00  0.00  0.97  0.00
  19001496                1.00   0.00  0.00  0.00  0.00  0.00  1.00  0.00  0.00  0.00
  19001497                1.05   0.00  0.00  0.00  1.00  0.00  0.00  0.00  1.00  0.00
  19001827                1.00   0.00  0.00  0.00  1.00  0.00  0.00  0.00  0.99  0.00
  19001828                1.23   0.14  0.12  0.00  0.68  0.06  0.00  0.00  0.69  0.00
  19001829                1.77   0.16  0.40  0.00  0.40  0.04  0.00  0.00  0.95  0.00
  19001830                8.69   0.94  0.06  0.00  0.00  0.00  0.00  0.00  0.00  0.00
  19001833                1.57   0.37  0.00  0.00  0.00  0.00  0.00  0.62  0.00  0.00
  19001834               11.43   0.00  0.00  0.00  0.00  1.00  0.00  0.00  0.00  0.00
  DRUMMOND_INFLOW         1.79   0.00  0.00  0.00  0.00  0.00  0.00  1.00  0.00  0.00
  HIGH_LIFT_SPS_OVERFLOW    1.68   1.00  0.00  0.00  0.00  0.00  0.00  0.00  0.00  0.00
  NIAGARA_WWTP_OUTLET1    1.00   0.00  0.00  0.00  0.01  0.99  0.00  0.00  0.00  0.00
  NIAGARA_WWTP_OUTLET2    7.64   0.00  0.00  0.00  0.01  0.99  0.00  0.00  0.00  0.00
  NIAGARA_WWTP_OUTLET3    3.12   0.00  0.00  0.00  0.01  0.99  0.00  0.00  0.00  0.00
  NIAGARA_WWTP_OVERFLOW    3.60   1.00  0.00  0.00  0.00  0.00  0.00  0.00  0.00  0.00
  PELLS_CREEK_OVERFLOW    1.00   1.00  0.00  0.00  0.00  0.00  0.00  0.00  0.00  0.00
  
  
  *************************
  Conduit Surcharge Summary
  *************************
  
  ----------------------------------------------------------------------------
                                                           Hours        Hours 
                         --------- Hours Full --------   Above Full   Capacity
  Conduit                Both Ends  Upstream  Dnstream   Normal Flow   Limited
  ----------------------------------------------------------------------------
  10411519                   13.99     13.99     23.64      0.01         0.03
  10413001                    0.01      0.01     13.99      0.01         0.01
  10414991                   20.65     20.91     20.65     46.36        20.65
  10415073                    0.01      0.01      6.11      0.01         0.01
  10417026                    0.01      0.01     52.14      0.01         0.01
  19000049                    1.88      1.88      2.35      0.01         0.01
  19000050                    3.47      3.50      3.47      3.85         3.47
  19000051                    3.41      3.47      3.41      3.93         3.41
  19000052                    3.22      3.41      3.22      3.92         3.22
  19000053                    2.31      3.22      2.31      4.78         2.31
  19000054                    2.31      2.31      2.55      1.86         1.90
  19000089                    0.01   5135.58      0.01   5135.61         0.01
  19000091                    1.56      2.43      1.56      4.71         1.56
  19000121                    2.35      2.35      3.13      0.01         0.01
  19000125                    3.76      3.76      4.53      0.01         0.02
  19000128                 5129.48   5129.48   5129.52     16.22        16.02
  19000129                 5129.48   5129.48   5129.72      4.70         4.75
  19000130                 5133.34   5133.34   5133.57     49.60         0.01
  19000138                    0.63      0.71      0.63      1.51         0.63
  19000139                    0.70      0.77      0.70      1.48         0.70
  19000140                    0.76      0.83      0.76      1.48         0.76
  19000161                    0.87      0.94      0.87      1.37         0.87
  19000163                    0.86      0.86      0.93      0.01         0.01
  19000164                    0.82      0.82      0.86      0.01         0.01
  19000165                    2.10      2.55      2.10      3.80         2.10
  19000166                    1.80      2.10      1.80      3.83         1.80
  19000196                 5129.13   5129.13   5129.43      0.01         0.01
  19000209                    0.01      0.01      0.01      1.18         0.01
  19000210                    0.01      0.01      0.01      1.09         0.01
  19000211                    0.01      0.01      0.01      1.16         0.01
  19000213                    0.01      0.01     21.19      0.01         0.01
  19000224                 5130.39   5130.39   5135.67      0.01         0.01
  19000239                    0.01      0.01      0.01      1.19         0.01
  19000241                    0.01      0.01     62.70      0.01         0.01
  19000268                 5129.72   5129.72   5130.06     13.99        13.96
  19000294                 5130.39   5130.39   5131.79      0.01         0.01
  19000296                    0.14      0.14     20.29      0.01         0.01
  19000297                    0.01      0.31      0.01      5.00         0.01
  19000298                    0.01      0.01      0.01      0.33         0.01
  19000305                    1.30      1.30      1.45      0.01         0.01
  19000306                    1.45      1.45      1.73      0.01         0.01
  19000307                    1.84      1.84      2.22      1.24         1.23
  19000313                 5127.40   5127.40   5127.96      0.01         0.01
  19000314                   10.31     10.31     12.84      0.78         0.85
  19000319                    0.01      0.01      0.14      0.01         0.01
  19000321                   20.29     20.29     26.84      0.01         0.01
  19000322                   21.19     21.19     29.21      0.01         0.01
  19000350                 5129.43   5129.43   5129.48     15.39        15.08
  19000358                 5130.06   5130.06   5130.60     12.08        12.07
  19000359                 5131.89   5131.89   5132.08      0.01         0.01
  19000366                    3.42      3.42     24.76      0.34         0.37
  19000367                    3.18      3.18      3.50      1.05         1.05
  19000368                    2.52      2.52      6.01      3.60         0.01
  19000372                    0.01      0.01      0.01      0.69         0.01
  19000374                    0.01      0.01      0.01    129.72         0.01
  19000375                 5134.24   5134.24   5135.46     28.05         0.01
  19000426                    1.46      2.25      1.46      5.04         1.46
  19000427                    1.36      1.46      1.36      5.86         1.36
  19000428                    1.24      1.51      1.24      4.66         1.24
  19000429                    0.93      1.28      0.93      3.92         0.93
  19000430                    0.06      1.03      0.06      4.14         0.06
  19000435                 5132.37   5132.37   5132.65     33.00        33.11
  19000465                 5129.07   5129.07   5129.30      1.74         1.78
  19000506                    0.82      0.88      0.82      1.46         0.82
  19000507                    0.01      1.80      0.01      3.85         0.01
  19000551                    0.25      0.47      0.25      2.66         0.25
  19000585                    0.45      0.45      0.71      0.01         0.01
  19000587                    1.01      1.01      5.09      0.01         0.01
  19000588                    5.09      5.09     75.43      0.01         0.01
  19000615                    1.21      1.21      1.89      0.01         0.01
  19000618                    0.01      0.01   5133.23      0.01         0.01
  19000619                    0.01      0.01      0.01      0.78         0.01
  19000666                    0.01      0.11      0.01      1.50         0.01
  19000667                    0.01      0.01      0.08      0.01         0.01
  19000668                    0.01      0.30      0.01      1.48         0.01
  19000669                    0.24      0.64      0.24      1.50         0.24
  19000670                    1.60      1.60      2.23      0.01         0.01
  19000674                    0.01      0.01      0.01      1.19         0.01
  19000679                    0.01      0.01      0.01      1.50         0.01
  19000823                    0.01      0.01    139.43      0.01         0.01
  19001339                    0.01      0.01      0.01      0.01         0.01
  19001447                 5132.08   5132.08   5132.17      2.98         3.19
  19001448                 5132.17   5132.17   5133.23      0.01         0.01
  19001489                    0.01     75.43      0.01     16.09         0.01
  19001496                    0.01      0.01      0.01      2.64         0.01
  19001827                    0.01      0.01     19.96      0.01         0.01
  NIAGARA_WWTP_OUTLET2        0.01      0.01      4.36      0.01         0.01
  NIAGARA_WWTP_OUTLET3        0.01      0.01      4.36      0.01         0.01
  
  
  ***************
  Pumping Summary
  ***************
  
  ---------------------------------------------------------------------------------------------------------
                                                  Min       Avg       Max     Total     Power    % Time Off
                        Percent   Number of      Flow      Flow      Flow    Volume     Usage    Pump Curve
  Pump                 Utilized   Start-Ups       LPS       LPS       LPS  10^6 ltr     Kw-hr    Low   High
  ---------------------------------------------------------------------------------------------------------
  14000026_P1            100.00           2      0.00    170.36    750.00  2803.300 174988.40    0.0    0.5
  14000030_P1             99.99           2      0.00     53.27    270.24   867.019  32297.66    0.0    0.0
  14000073_P1             99.97         369      0.00      9.32     77.00   146.802   4360.53    0.0    0.3
  14000101_P1            100.00           1      0.00     64.35    510.00  1079.578  58850.85    0.0    0.0
  14000109_P1            100.00           1      0.00     13.01    420.88   169.334  15330.75    0.0    0.0
  14000131_P1            100.00           1      0.00      9.10     70.00   150.686   5568.22    0.0    0.0
  14000137_P1             99.96           6      0.00     61.82    443.00   937.382  40921.17    0.0    0.6
  14000163_1              99.97         362      0.00    166.22   1000.00  2655.120  95655.91    0.0    0.0
  14000169_P1            100.00           1      0.00     10.52    100.00   160.210   6364.41    0.0    0.5
  CENTRAL_HRT_INLET      100.00           1      0.00    188.54   1615.26  2858.977  37151.51    0.0    0.0
  CENTRAL_HRT_TREATED_OVERFLOW     1.62       35674      0.00    814.20   3217.32   216.516    635.56    0.0   31.9
  CENTRAL_HRT_UNDERFLOW    98.33       34826      0.00    167.69   1615.24  2624.969  23234.65    0.0    1.7
  NIAGARA_WWTP_INFLOW    100.00           1      0.00    332.32   1579.00  5331.007   5999.28    0.0    0.2
  

  Analysis begun on:  Fri Nov 29 08:22:18 2019
  Analysis ended on:  Fri Nov 29 08:27:17 2019
  Total elapsed time: 00:04:59