
  EPA STORM WATER MANAGEMENT MODEL - VERSION 5.1 (Build 5.1.013)
  --------------------------------------------------------------

  WARNING 04: minimum elevation drop used for Conduit 19000152
  WARNING 03: negative offset ignored for Link 19000215
  WARNING 03: negative offset ignored for Link 19000241
  WARNING 03: negative offset ignored for Link 19000374
  WARNING 04: minimum elevation drop used for Conduit 19000374
  WARNING 03: negative offset ignored for Link 19000618
  WARNING 03: negative offset ignored for Link 19000618
  WARNING 02: maximum depth increased for Node 10001373
  
  *********************************************************
  NOTE: The summary statistics displayed in this report are
  based on results found at every computational time step,  
  not just on results from each reporting time step.
  *********************************************************
  
  ****************
  Analysis Options
  ****************
  Flow Units ............... LPS
  Process Models:
    Rainfall/Runoff ........ YES
    RDII ................... NO
    Snowmelt ............... NO
    Groundwater ............ NO
    Flow Routing ........... YES
    Ponding Allowed ........ NO
    Water Quality .......... NO
  Infiltration Method ...... HORTON
  Flow Routing Method ...... DYNWAVE
  Surcharge Method ......... EXTRAN
  Starting Date ............ 04/01/1980 00:00:00
  Ending Date .............. 11/01/1980 00:00:00
  Antecedent Dry Days ...... 3.0
  Report Time Step ......... 01:00:00
  Wet Time Step ............ 01:00:00
  Dry Time Step ............ 05:00:00
  Routing Time Step ........ 30.00 sec
  Variable Time Step ....... YES
  Maximum Trials ........... 8
  Number of Threads ........ 1
  Head Tolerance ........... 0.001524 m
  
  
  **************************        Volume         Depth
  Runoff Quantity Continuity     hectare-m            mm
  **************************     ---------       -------
  Total Precipitation ......         0.000         0.000
  Evaporation Loss .........         0.000         0.000
  Infiltration Loss ........         0.000         0.000
  Surface Runoff ...........         0.000         0.000
  Final Storage ............         0.000         0.000
  Continuity Error (%) .....         0.000
  
  
  **************************        Volume        Volume
  Flow Routing Continuity        hectare-m      10^6 ltr
  **************************     ---------     ---------
  Dry Weather Inflow .......         0.000         0.000
  Wet Weather Inflow .......         0.000         0.000
  Groundwater Inflow .......         0.000         0.000
  RDII Inflow ..............         0.000         0.000
  External Inflow ..........         0.000         0.000
  External Outflow .........         0.000         0.000
  Flooding Loss ............         0.000         0.000
  Evaporation Loss .........         0.000         0.000
  Exfiltration Loss ........         0.000         0.000
  Initial Stored Volume ....         0.022         0.219
  Final Stored Volume ......         0.022         0.219
  Continuity Error (%) .....         0.000
  
  
  ***************************
  Time-Step Critical Elements
  ***************************
  None
  
  
  ********************************
  Highest Flow Instability Indexes
  ********************************
  All links are stable.
  
  
  ***************************
  Subcatchment Runoff Summary
  ***************************
  
  ------------------------------------------------------------------------------------------------------------------------------
                            Total      Total      Total      Total     Imperv       Perv      Total       Total     Peak  Runoff
                           Precip      Runon       Evap      Infil     Runoff     Runoff     Runoff      Runoff   Runoff   Coeff
  Subcatchment                 mm         mm         mm         mm         mm         mm         mm    10^6 ltr      LPS
  ------------------------------------------------------------------------------------------------------------------------------
  23001921                   0.00       0.00       0.00       0.00       0.00       0.00       0.00        0.00     0.00   0.000
  23001922                   0.00       0.00       0.00       0.00       0.00       0.00       0.00        0.00     0.00   0.000
  23001923                   0.00       0.00       0.00       0.00       0.00       0.00       0.00        0.00     0.00   0.000
  23001924                   0.00       0.00       0.00       0.00       0.00       0.00       0.00        0.00     0.00   0.000
  23001925                   0.00       0.00       0.00       0.00       0.00       0.00       0.00        0.00     0.00   0.000
  23001926                   0.00       0.00       0.00       0.00       0.00       0.00       0.00        0.00     0.00   0.000
  23001927                   0.00       0.00       0.00       0.00       0.00       0.00       0.00        0.00     0.00   0.000
  23001928                   0.00       0.00       0.00       0.00       0.00       0.00       0.00        0.00     0.00   0.000
  23001929                   0.00       0.00       0.00       0.00       0.00       0.00       0.00        0.00     0.00   0.000
  23001930                   0.00       0.00       0.00       0.00       0.00       0.00       0.00        0.00     0.00   0.000
  23001931                   0.00       0.00       0.00       0.00       0.00       0.00       0.00        0.00     0.00   0.000
  23001932                   0.00       0.00       0.00       0.00       0.00       0.00       0.00        0.00     0.00   0.000
  23001933                   0.00       0.00       0.00       0.00       0.00       0.00       0.00        0.00     0.00   0.000
  23001934                   0.00       0.00       0.00       0.00       0.00       0.00       0.00        0.00     0.00   0.000
  23001935                   0.00       0.00       0.00       0.00       0.00       0.00       0.00        0.00     0.00   0.000
  23001936                   0.00       0.00       0.00       0.00       0.00       0.00       0.00        0.00     0.00   0.000
  23001937                   0.00       0.00       0.00       0.00       0.00       0.00       0.00        0.00     0.00   0.000
  23001938                   0.00       0.00       0.00       0.00       0.00       0.00       0.00        0.00     0.00   0.000
  23001939                   0.00       0.00       0.00       0.00       0.00       0.00       0.00        0.00     0.00   0.000
  23001940                   0.00       0.00       0.00       0.00       0.00       0.00       0.00        0.00     0.00   0.000
  23001941                   0.00       0.00       0.00       0.00       0.00       0.00       0.00        0.00     0.00   0.000
  23001942                   0.00       0.00       0.00       0.00       0.00       0.00       0.00        0.00     0.00   0.000
  23001943                   0.00       0.00       0.00       0.00       0.00       0.00       0.00        0.00     0.00   0.000
  23001944                   0.00       0.00       0.00       0.00       0.00       0.00       0.00        0.00     0.00   0.000
  23001945                   0.00       0.00       0.00       0.00       0.00       0.00       0.00        0.00     0.00   0.000
  23001946                   0.00       0.00       0.00       0.00       0.00       0.00       0.00        0.00     0.00   0.000
  23001947                   0.00       0.00       0.00       0.00       0.00       0.00       0.00        0.00     0.00   0.000
  23001948                   0.00       0.00       0.00       0.00       0.00       0.00       0.00        0.00     0.00   0.000
  23001949                   0.00       0.00       0.00       0.00       0.00       0.00       0.00        0.00     0.00   0.000
  23001950                   0.00       0.00       0.00       0.00       0.00       0.00       0.00        0.00     0.00   0.000
  23001951                   0.00       0.00       0.00       0.00       0.00       0.00       0.00        0.00     0.00   0.000
  23001952                   0.00       0.00       0.00       0.00       0.00       0.00       0.00        0.00     0.00   0.000
  23001953                   0.00       0.00       0.00       0.00       0.00       0.00       0.00        0.00     0.00   0.000
  23001954                   0.00       0.00       0.00       0.00       0.00       0.00       0.00        0.00     0.00   0.000
  23001955                   0.00       0.00       0.00       0.00       0.00       0.00       0.00        0.00     0.00   0.000
  23001956                   0.00       0.00       0.00       0.00       0.00       0.00       0.00        0.00     0.00   0.000
  23001957                   0.00       0.00       0.00       0.00       0.00       0.00       0.00        0.00     0.00   0.000
  23001958                   0.00       0.00       0.00       0.00       0.00       0.00       0.00        0.00     0.00   0.000
  23001959                   0.00       0.00       0.00       0.00       0.00       0.00       0.00        0.00     0.00   0.000
  23001960                   0.00       0.00       0.00       0.00       0.00       0.00       0.00        0.00     0.00   0.000
  23001961                   0.00       0.00       0.00       0.00       0.00       0.00       0.00        0.00     0.00   0.000
  23001962                   0.00       0.00       0.00       0.00       0.00       0.00       0.00        0.00     0.00   0.000
  23001963                   0.00       0.00       0.00       0.00       0.00       0.00       0.00        0.00     0.00   0.000
  23002083                   0.00       0.00       0.00       0.00       0.00       0.00       0.00        0.00     0.00   0.000
  23002084                   0.00       0.00       0.00       0.00       0.00       0.00       0.00        0.00     0.00   0.000
  23002085                   0.00       0.00       0.00       0.00       0.00       0.00       0.00        0.00     0.00   0.000
  23002086                   0.00       0.00       0.00       0.00       0.00       0.00       0.00        0.00     0.00   0.000
  23002087                   0.00       0.00       0.00       0.00       0.00       0.00       0.00        0.00     0.00   0.000
  
  
  ******************
  Node Depth Summary
  ******************
  
  ---------------------------------------------------------------------------------
                                 Average  Maximum  Maximum  Time of Max    Reported
                                   Depth    Depth      HGL   Occurrence   Max Depth
  Node                 Type       Meters   Meters   Meters  days hr:min      Meters
  ---------------------------------------------------------------------------------
  10000005             JUNCTION  -nan(ind)     0.00   188.10     0  00:00        0.00
  10000017             JUNCTION  -nan(ind)     0.00   173.19     0  00:00        0.00
  10000018             JUNCTION  -nan(ind)     0.00   172.67     0  00:00        0.00
  10000019             JUNCTION  -nan(ind)     0.00   172.54     0  00:00        0.00
  10000020             JUNCTION  -nan(ind)     0.00   172.36     0  00:00        0.00
  10000021             JUNCTION  -nan(ind)     0.00   172.19     0  00:00        0.00
  10000022             JUNCTION  -nan(ind)     0.00   172.67     0  00:00        0.00
  10000023             JUNCTION  -nan(ind)     0.00   172.51     0  00:00        0.00
  10000024             JUNCTION  -nan(ind)     0.00   172.36     0  00:00        0.00
  10000025             JUNCTION  -nan(ind)     0.00   174.46     0  00:00        0.00
  10000026             JUNCTION  -nan(ind)     0.00   174.69     0  00:00        0.00
  10000027             JUNCTION  -nan(ind)     0.00   174.86     0  00:00        0.00
  10000028             JUNCTION  -nan(ind)     0.00   175.05     0  00:00        0.00
  10000029             JUNCTION  -nan(ind)     0.00   175.21     0  00:00        0.00
  10000131             JUNCTION  -nan(ind)     0.00   175.37     0  00:00        0.00
  10000132             JUNCTION  -nan(ind)     0.00   177.57     0  00:00        0.00
  10000133             JUNCTION  -nan(ind)     0.00   176.74     0  00:00        0.00
  10000134             JUNCTION  -nan(ind)     0.00   175.67     0  00:00        0.00
  10000135             JUNCTION  -nan(ind)     0.00   175.56     0  00:00        0.00
  10000136             JUNCTION  -nan(ind)     0.00   175.23     0  00:00        0.00
  10000140             JUNCTION  -nan(ind)     0.00   174.56     0  00:00        0.00
  10000142             JUNCTION  -nan(ind)     0.00   172.68     0  00:00        0.00
  10000143             JUNCTION  -nan(ind)     0.00   175.60     0  00:00        0.00
  10000144             JUNCTION  -nan(ind)     0.00   175.80     0  00:00        0.00
  10000145             JUNCTION  -nan(ind)     0.00   190.20     0  00:00        0.00
  10000146             JUNCTION  -nan(ind)     0.00   189.90     0  00:00        0.00
  10000147             JUNCTION  -nan(ind)     0.00   176.20     0  00:00        0.00
  10000148             JUNCTION  -nan(ind)     0.00   176.50     0  00:00        0.00
  10000149             JUNCTION  -nan(ind)     0.00   176.80     0  00:00        0.00
  10000150             JUNCTION  -nan(ind)     0.00   175.86     0  00:00        0.00
  10000151             JUNCTION  -nan(ind)     0.00   175.59     0  00:00        0.00
  10000152             JUNCTION  -nan(ind)     0.00   175.36     0  00:00        0.00
  10000153             JUNCTION  -nan(ind)     0.00   175.17     0  00:00        0.00
  10000154             JUNCTION  -nan(ind)     0.00   175.07     0  00:00        0.00
  10000155             JUNCTION  -nan(ind)     0.00   174.92     0  00:00        0.00
  10000156             JUNCTION  -nan(ind)     0.00   174.71     0  00:00        0.00
  10000157             JUNCTION  -nan(ind)     0.00   174.36     0  00:00        0.00
  10000158             JUNCTION  -nan(ind)     0.00   174.09     0  00:00        0.00
  10000159             JUNCTION  -nan(ind)     0.00   174.26     0  00:00        0.00
  10000160             JUNCTION  -nan(ind)     0.00   174.06     0  00:00        0.00
  10000161             JUNCTION  -nan(ind)     0.00   165.07     0  00:00        0.00
  10000162             JUNCTION  -nan(ind)     0.00   165.44     0  00:00        0.00
  10000191             JUNCTION  -nan(ind)     0.00   169.77     0  00:00        0.00
  10000192             JUNCTION  -nan(ind)     0.00   169.67     0  00:00        0.00
  10000193             JUNCTION  -nan(ind)     0.00   169.57     0  00:00        0.00
  10000194             JUNCTION  -nan(ind)     0.00   169.46     0  00:00        0.00
  10000195             JUNCTION  -nan(ind)     0.00   169.36     0  00:00        0.00
  10000196             JUNCTION  -nan(ind)     0.00   168.15     0  00:00        0.00
  10000197             JUNCTION  -nan(ind)     0.00   167.94     0  00:00        0.00
  10000198             JUNCTION  -nan(ind)     0.00   167.68     0  00:00        0.00
  10000199             JUNCTION  -nan(ind)     0.00   167.64     0  00:00        0.00
  10000200             JUNCTION  -nan(ind)     0.00   167.60     0  00:00        0.00
  10000201             JUNCTION  -nan(ind)     0.00   167.46     0  00:00        0.00
  10000202             JUNCTION  -nan(ind)     0.00   189.60     0  00:00        0.00
  10000203             JUNCTION  -nan(ind)     0.00   189.30     0  00:00        0.00
  10000204             JUNCTION  -nan(ind)     0.00   189.20     0  00:00        0.00
  10000259             JUNCTION  -nan(ind)     0.00   189.10     0  00:00        0.00
  10000260             JUNCTION  -nan(ind)     0.00   188.80     0  00:00        0.00
  10000261             JUNCTION  -nan(ind)     0.00   188.55     0  00:00        0.00
  10000262             JUNCTION  -nan(ind)     0.00   188.31     0  00:00        0.00
  10000263             JUNCTION  -nan(ind)     0.00   188.10     0  00:00        0.00
  10000264             JUNCTION  -nan(ind)     0.00   187.90     0  00:00        0.00
  10000265             JUNCTION  -nan(ind)     0.00   187.20     0  00:00        0.00
  10000266             JUNCTION  -nan(ind)     0.00   186.50     0  00:00        0.00
  10000267             JUNCTION  -nan(ind)     0.00   185.50     0  00:00        0.00
  10000268             JUNCTION  -nan(ind)     0.00   185.02     0  00:00        0.00
  10000269             JUNCTION  -nan(ind)     0.00   183.90     0  00:00        0.00
  10000270             JUNCTION  -nan(ind)     0.00   182.73     0  00:00        0.00
  10000271             JUNCTION  -nan(ind)     0.00   181.63     0  00:00        0.00
  10000272             JUNCTION  -nan(ind)     0.00   180.65     0  00:00        0.00
  10000273             JUNCTION  -nan(ind)     0.00   180.00     0  00:00        0.00
  10000274             JUNCTION  -nan(ind)     0.00   179.35     0  00:00        0.00
  10000275             JUNCTION  -nan(ind)     0.00   178.68     0  00:00        0.00
  10000276             JUNCTION  -nan(ind)     0.00   178.13     0  00:00        0.00
  10000277             JUNCTION  -nan(ind)     0.00   177.88     0  00:00        0.00
  10000278             JUNCTION  -nan(ind)     0.00   176.94     0  00:00        0.00
  10000279             JUNCTION  -nan(ind)     0.00   175.87     0  00:00        0.00
  10000280             JUNCTION  -nan(ind)     0.00   174.68     0  00:00        0.00
  10000281             JUNCTION  -nan(ind)     0.00   173.58     0  00:00        0.00
  10000282             JUNCTION  -nan(ind)     0.00   173.03     0  00:00        0.00
  10000283             JUNCTION  -nan(ind)     0.00   172.41     0  00:00        0.00
  10000285             JUNCTION  -nan(ind)     0.00   184.25     0  00:00        0.00
  10000286             JUNCTION  -nan(ind)     0.00   183.69     0  00:00        0.00
  10000287             JUNCTION  -nan(ind)     0.00   183.15     0  00:00        0.00
  10000288             JUNCTION  -nan(ind)     0.00   182.76     0  00:00        0.00
  10000289             JUNCTION  -nan(ind)     0.00   181.78     0  00:00        0.00
  10000290             JUNCTION  -nan(ind)     0.00   173.84     0  00:00        0.00
  10000291             JUNCTION  -nan(ind)     0.00   173.52     0  00:00        0.00
  10000292             JUNCTION  -nan(ind)     0.00   174.40     0  00:00        0.00
  10000293             JUNCTION  -nan(ind)     0.00   174.73     0  00:00        0.00
  10000294             JUNCTION  -nan(ind)     0.00   174.96     0  00:00        0.00
  10000295             JUNCTION  -nan(ind)     0.00   175.26     0  00:00        0.00
  10000296             JUNCTION  -nan(ind)     0.00   175.54     0  00:00        0.00
  10000297             JUNCTION  -nan(ind)     0.00   176.00     0  00:00        0.00
  10000298             JUNCTION  -nan(ind)     0.00   176.41     0  00:00        0.00
  10000299             JUNCTION  -nan(ind)     0.00   176.78     0  00:00        0.00
  10000300             JUNCTION  -nan(ind)     0.00   177.04     0  00:00        0.00
  10000301             JUNCTION  -nan(ind)     0.00   177.47     0  00:00        0.00
  10000302             JUNCTION  -nan(ind)     0.00   176.06     0  00:00        0.00
  10000317             JUNCTION  -nan(ind)     0.00   174.98     0  00:00        0.00
  10000318             JUNCTION  -nan(ind)     0.00   169.36     0  00:00        0.00
  10000366             JUNCTION  -nan(ind)     0.00   175.48     0  00:00        0.00
  10000367             JUNCTION  -nan(ind)     0.00   190.66     0  00:00        0.00
  10000368             JUNCTION  -nan(ind)     0.00   190.50     0  00:00        0.00
  10000369             JUNCTION  -nan(ind)     0.00   165.54     0  00:00        0.00
  10000388             JUNCTION  -nan(ind)     0.00   170.63     0  00:00        0.00
  10000389             JUNCTION  -nan(ind)     0.00   170.51     0  00:00        0.00
  10000390             JUNCTION  -nan(ind)     0.00   170.44     0  00:00        0.00
  10000391             JUNCTION  -nan(ind)     0.00   170.31     0  00:00        0.00
  10000392             JUNCTION  -nan(ind)     0.00   170.18     0  00:00        0.00
  10000393             JUNCTION  -nan(ind)     0.00   170.07     0  00:00        0.00
  10000394             JUNCTION  -nan(ind)     0.00   170.94     0  00:00        0.00
  10000395             JUNCTION  -nan(ind)     0.00   170.82     0  00:00        0.00
  10000396             JUNCTION  -nan(ind)     0.00   169.97     0  00:00        0.00
  10000397             JUNCTION  -nan(ind)     0.00   169.87     0  00:00        0.00
  10000398             JUNCTION  -nan(ind)     0.00   167.24     0  00:00        0.00
  10000399             JUNCTION  -nan(ind)     0.00   166.90     0  00:00        0.00
  10000400             JUNCTION  -nan(ind)     0.00   165.43     0  00:00        0.00
  10000409             JUNCTION  -nan(ind)     0.00   174.25     0  00:00        0.00
  10000410             JUNCTION  -nan(ind)     0.00   174.41     0  00:00        0.00
  10000411             JUNCTION  -nan(ind)     0.00   174.57     0  00:00        0.00
  10000412             JUNCTION  -nan(ind)     0.00   174.71     0  00:00        0.00
  10000413             JUNCTION  -nan(ind)     0.00   174.79     0  00:00        0.00
  10000414             JUNCTION  -nan(ind)     0.00   174.87     0  00:00        0.00
  10000415             JUNCTION  -nan(ind)     0.00   175.03     0  00:00        0.00
  10000416             JUNCTION  -nan(ind)     0.00   175.28     0  00:00        0.00
  10000417             JUNCTION  -nan(ind)     0.00   175.38     0  00:00        0.00
  10000475             JUNCTION  -nan(ind)     0.00   180.00     0  00:00        0.00
  10000476             JUNCTION  -nan(ind)     0.00   182.93     0  00:00        0.00
  10000477             JUNCTION  -nan(ind)     0.00   182.82     0  00:00        0.00
  10000478             JUNCTION  -nan(ind)     0.00   182.99     0  00:00        0.00
  10000484             JUNCTION  -nan(ind)     0.00   182.81     0  00:00        0.00
  10000485             JUNCTION  -nan(ind)     0.00   182.39     0  00:00        0.00
  10000486             JUNCTION  -nan(ind)     0.00   182.12     0  00:00        0.00
  10000487             JUNCTION  -nan(ind)     0.00   181.94     0  00:00        0.00
  10000488             JUNCTION  -nan(ind)     0.00   181.77     0  00:00        0.00
  10000489             JUNCTION  -nan(ind)     0.00   181.47     0  00:00        0.00
  10000490             JUNCTION  -nan(ind)     0.00   181.24     0  00:00        0.00
  10000491             JUNCTION  -nan(ind)     0.00   181.05     0  00:00        0.00
  10000492             JUNCTION  -nan(ind)     0.00   180.72     0  00:00        0.00
  10000493             JUNCTION  -nan(ind)     0.00   180.42     0  00:00        0.00
  10000494             JUNCTION  -nan(ind)     0.00   178.71     0  00:00        0.00
  10000495             JUNCTION  -nan(ind)     0.00   178.43     0  00:00        0.00
  10000503             JUNCTION  -nan(ind)     0.00   192.00     0  00:00        0.00
  10000534             JUNCTION  -nan(ind)     0.00   178.28     0  00:00        0.00
  10000535             JUNCTION  -nan(ind)     0.00   196.08     0  00:00        0.00
  10000536             JUNCTION  -nan(ind)     0.00   195.43     0  00:00        0.00
  10000537             JUNCTION  -nan(ind)     0.00   194.81     0  00:00        0.00
  10000538             JUNCTION  -nan(ind)     0.00   194.67     0  00:00        0.00
  10000545             JUNCTION  -nan(ind)     0.00   194.05     0  00:00        0.00
  10000546             JUNCTION  -nan(ind)     0.00   192.65     0  00:00        0.00
  10000547             JUNCTION  -nan(ind)     0.00   191.05     0  00:00        0.00
  10000548             JUNCTION  -nan(ind)     0.00   189.08     0  00:00        0.00
  10000549             JUNCTION  -nan(ind)     0.00   187.91     0  00:00        0.00
  10000550             JUNCTION  -nan(ind)     0.00   186.71     0  00:00        0.00
  10000551             JUNCTION  -nan(ind)     0.00   185.74     0  00:00        0.00
  10000552             JUNCTION  -nan(ind)     0.00   185.14     0  00:00        0.00
  10000553             JUNCTION  -nan(ind)     0.00   184.56     0  00:00        0.00
  10000554             JUNCTION  -nan(ind)     0.00   181.56     0  00:00        0.00
  10000555             JUNCTION  -nan(ind)     0.00   181.36     0  00:00        0.00
  10000556             JUNCTION  -nan(ind)     0.00   172.70     0  00:00        0.00
  10000557             JUNCTION  -nan(ind)     0.00   173.03     0  00:00        0.00
  10000558             JUNCTION  -nan(ind)     0.00   173.31     0  00:00        0.00
  10000559             JUNCTION  -nan(ind)     0.00   173.42     0  00:00        0.00
  10000560             JUNCTION  -nan(ind)     0.00   174.17     0  00:00        0.00
  10000561             JUNCTION  -nan(ind)     0.00   172.45     0  00:00        0.00
  10000562             JUNCTION  -nan(ind)     0.00   181.09     0  00:00        0.00
  10000563             JUNCTION  -nan(ind)     0.00   180.42     0  00:00        0.00
  10000564             JUNCTION  -nan(ind)     0.00   180.38     0  00:00        0.00
  10000574             JUNCTION  -nan(ind)     0.00   179.91     0  00:00        0.00
  10000575             JUNCTION  -nan(ind)     0.00   179.77     0  00:00        0.00
  10000576             JUNCTION  -nan(ind)     0.00   178.94     0  00:00        0.00
  10000577             JUNCTION  -nan(ind)     0.00   178.18     0  00:00        0.00
  10000578             JUNCTION  -nan(ind)     0.00   174.92     0  00:00        0.00
  10000579             JUNCTION  -nan(ind)     0.00   174.86     0  00:00        0.00
  10000580             JUNCTION  -nan(ind)     0.00   174.47     0  00:00        0.00
  10000581             JUNCTION  -nan(ind)     0.00   174.09     0  00:00        0.00
  10000582             JUNCTION  -nan(ind)     0.00   173.73     0  00:00        0.00
  10000583             JUNCTION  -nan(ind)     0.00   173.34     0  00:00        0.00
  10000602             JUNCTION  -nan(ind)     0.00   173.05     0  00:00        0.00
  10000603             JUNCTION  -nan(ind)     0.00   172.76     0  00:00        0.00
  10000604             JUNCTION  -nan(ind)     0.00   171.59     0  00:00        0.00
  10000605             JUNCTION  -nan(ind)     0.00   171.29     0  00:00        0.00
  10000606             JUNCTION  -nan(ind)     0.00   171.18     0  00:00        0.00
  10000607             JUNCTION  -nan(ind)     0.00   171.06     0  00:00        0.00
  10000608             JUNCTION  -nan(ind)     0.00   182.12     0  00:00        0.00
  10000644             JUNCTION  -nan(ind)     0.00   182.55     0  00:00        0.00
  10000645             JUNCTION  -nan(ind)     0.00   165.90     0  00:00        0.00
  10001372             JUNCTION  -nan(ind)     0.00   172.55     0  00:00        0.00
  10001373             JUNCTION  -nan(ind)     0.00   172.74     0  00:00        0.00
  10001374             JUNCTION  -nan(ind)     0.00   173.67     0  00:00        0.00
  10001375             JUNCTION  -nan(ind)     0.00   173.76     0  00:00        0.00
  10001376             JUNCTION  -nan(ind)     0.00   173.85     0  00:00        0.00
  10001479             JUNCTION  -nan(ind)     0.00   165.40     0  00:00        0.00
  10001508             JUNCTION  -nan(ind)     0.00   173.24     0  00:00        0.00
  10001509             JUNCTION  -nan(ind)     0.00   171.28     0  00:00        0.00
  10001510             JUNCTION  -nan(ind)     0.00   172.96     0  00:00        0.00
  10001512             JUNCTION  -nan(ind)     0.00   170.62     0  00:00        0.00
  10001513             JUNCTION  -nan(ind)     0.00   169.91     0  00:00        0.00
  10001514             JUNCTION  -nan(ind)     0.00   169.69     0  00:00        0.00
  10001515             JUNCTION  -nan(ind)     0.00   169.17     0  00:00        0.00
  10001906             JUNCTION  -nan(ind)     0.00   169.40     0  00:00        0.00
  10001907             JUNCTION  -nan(ind)     0.00   168.90     0  00:00        0.00
  10001908             JUNCTION  -nan(ind)     0.00   163.00     0  00:00        0.00
  10001909             JUNCTION  -nan(ind)     0.00   163.30     0  00:00        0.00
  10001910             JUNCTION  -nan(ind)     0.00   163.50     0  00:00        0.00
  10001911             JUNCTION  -nan(ind)     0.00   168.15     0  00:00        0.00
  10001912             JUNCTION  -nan(ind)     0.00   168.32     0  00:00        0.00
  10001913             JUNCTION  -nan(ind)     0.00   168.88     0  00:00        0.00
  10001914             JUNCTION  -nan(ind)     0.00   163.65     0  00:00        0.00
  10410812             JUNCTION  -nan(ind)     0.00   181.50     0  00:00        0.00
  10410813             JUNCTION  -nan(ind)     0.00   180.89     0  00:00        0.00
  10410819             JUNCTION  -nan(ind)     0.00   171.34     0  00:00        0.00
  10410821             JUNCTION  -nan(ind)     0.00   155.56     0  00:00        0.00
  10410852             JUNCTION  -nan(ind)     0.00   172.97     0  00:00        0.00
  10410853             JUNCTION  -nan(ind)     0.00   171.43     0  00:00        0.00
  1045734              JUNCTION  -nan(ind)     0.00   181.78     0  00:00        0.00
  1045736              JUNCTION  -nan(ind)     0.00   177.37     0  00:00        0.00
  1046328              JUNCTION  -nan(ind)     0.00   154.70     0  00:00        0.00
  1046859              JUNCTION  -nan(ind)     0.00   177.98     0  00:00        0.00
  1048818              JUNCTION  -nan(ind)     0.00   173.76     0  00:00        0.00
  1048906              JUNCTION  -nan(ind)     0.00   156.94     0  00:00        0.00
  1048907              JUNCTION  -nan(ind)     0.00   159.47     0  00:00        0.00
  1049082              JUNCTION  -nan(ind)     0.00   178.37     0  00:00        0.00
  1049157              JUNCTION  -nan(ind)     0.00   153.65     0  00:00        0.00
  1049159              JUNCTION  -nan(ind)     0.00   151.50     0  00:00        0.00
  1049163              JUNCTION  -nan(ind)     0.00   185.43     0  00:00        0.00
  1049164              JUNCTION  -nan(ind)     0.00   181.91     0  00:00        0.00
  1049165              JUNCTION  -nan(ind)     0.00   182.09     0  00:00        0.00
  14000170             JUNCTION  -nan(ind)     0.00   163.54     0  00:00        0.00
  NIAGARA_WWTP_INLET   JUNCTION  -nan(ind)     0.00   170.00     0  00:00        0.00
  10001369             OUTFALL   -nan(ind)     0.00   169.60     0  00:00        0.00
  1045729              OUTFALL   -nan(ind)     0.00   169.76     0  00:00        0.00
  1045730              OUTFALL   -nan(ind)     0.00   153.60     0  00:00        0.00
  1045742              OUTFALL   -nan(ind)     0.00   177.77     0  00:00        0.00
  1045743              OUTFALL   -nan(ind)     0.00   181.35     0  00:00        0.00
  1048905              OUTFALL   -nan(ind)     0.00   155.94     0  00:00        0.00
  HIGH_LIFT_SPS_OVERFLOW_OUTFALL OUTFALL   -nan(ind)     0.00   171.00     0  00:00        0.00
  NIAGARA_WWTP_BYPASS_OUTFALL OUTFALL   -nan(ind)     0.00   170.50     0  00:00        0.00
  PELLS_CREEK_CSO      OUTFALL   -nan(ind)     0.00   178.40     0  00:00        0.00
  14000026_1           STORAGE   -nan(ind)     0.00   169.01     0  00:00        0.00
  14000030_1           STORAGE   -nan(ind)     0.00   178.73     0  00:00        0.00
  14000073_1           STORAGE   -nan(ind)     0.00   169.47     0  00:00        0.00
  14000101_1           STORAGE   -nan(ind)     0.00   176.00     0  00:00        0.00
  14000109_1           STORAGE   -nan(ind)     0.00   150.88     0  00:00        0.00
  14000131             STORAGE   -nan(ind)     0.00   174.82     0  00:00        0.00
  14000137_1           STORAGE   -nan(ind)     0.00   161.35     0  00:00        0.00
  14000163             STORAGE   -nan(ind)     0.00   160.72     0  00:00        0.00
  14000169             STORAGE   -nan(ind)     0.00   154.64     0  00:00        0.00
  
  
  *******************
  Node Inflow Summary
  *******************
  
  -------------------------------------------------------------------------------------------------
                                  Maximum  Maximum                  Lateral       Total        Flow
                                  Lateral    Total  Time of Max      Inflow      Inflow     Balance
                                   Inflow   Inflow   Occurrence      Volume      Volume       Error
  Node                 Type           LPS      LPS  days hr:min    10^6 ltr    10^6 ltr     Percent
  -------------------------------------------------------------------------------------------------
  10000005             JUNCTION      0.00     0.00     0  00:00           0           0       0.000 ltr
  10000017             JUNCTION      0.00     0.00     0  00:00           0           0       0.000 ltr
  10000018             JUNCTION      0.00     0.00     0  00:00           0           0       0.000 ltr
  10000019             JUNCTION      0.00     0.00     0  00:00           0           0       0.000 ltr
  10000020             JUNCTION      0.00     0.00     0  00:00           0           0       0.000 ltr
  10000021             JUNCTION      0.00     0.00     0  00:00           0           0       0.000 ltr
  10000022             JUNCTION      0.00     0.00     0  00:00           0           0       0.000 ltr
  10000023             JUNCTION      0.00     0.00     0  00:00           0           0       0.000 ltr
  10000024             JUNCTION      0.00     0.00     0  00:00           0           0       0.000 ltr
  10000025             JUNCTION      0.00     0.00     0  00:00           0           0       0.000 ltr
  10000026             JUNCTION      0.00     0.00     0  00:00           0           0       0.000 ltr
  10000027             JUNCTION      0.00     0.00     0  00:00           0           0       0.000 ltr
  10000028             JUNCTION      0.00     0.00     0  00:00           0           0       0.000 ltr
  10000029             JUNCTION      0.00     0.00     0  00:00           0           0       0.000 ltr
  10000131             JUNCTION      0.00     0.00     0  00:00           0           0       0.000 ltr
  10000132             JUNCTION      0.00     0.00     0  00:00           0           0       0.000 ltr
  10000133             JUNCTION      0.00     0.00     0  00:00           0           0       0.000 ltr
  10000134             JUNCTION      0.00     0.00     0  00:00           0           0       0.000 ltr
  10000135             JUNCTION      0.00     0.00     0  00:00           0           0       0.000 ltr
  10000136             JUNCTION      0.00     0.00     0  00:00           0           0       0.000 ltr
  10000140             JUNCTION      0.00     0.00     0  00:00           0           0       0.000 ltr
  10000142             JUNCTION      0.00     0.00     0  00:00           0           0       0.000 ltr
  10000143             JUNCTION      0.00     0.00     0  00:00           0           0       0.000 ltr
  10000144             JUNCTION      0.00     0.00     0  00:00           0           0       0.000 ltr
  10000145             JUNCTION      0.00     0.00     0  00:00           0           0       0.000 ltr
  10000146             JUNCTION      0.00     0.00     0  00:00           0           0       0.000 ltr
  10000147             JUNCTION      0.00     0.00     0  00:00           0           0       0.000 ltr
  10000148             JUNCTION      0.00     0.00     0  00:00           0           0       0.000 ltr
  10000149             JUNCTION      0.00     0.00     0  00:00           0           0       0.000 ltr
  10000150             JUNCTION      0.00     0.00     0  00:00           0           0       0.000 ltr
  10000151             JUNCTION      0.00     0.00     0  00:00           0           0       0.000 ltr
  10000152             JUNCTION      0.00     0.00     0  00:00           0           0       0.000 ltr
  10000153             JUNCTION      0.00     0.00     0  00:00           0           0       0.000 ltr
  10000154             JUNCTION      0.00     0.00     0  00:00           0           0       0.000 ltr
  10000155             JUNCTION      0.00     0.00     0  00:00           0           0       0.000 ltr
  10000156             JUNCTION      0.00     0.00     0  00:00           0           0       0.000 ltr
  10000157             JUNCTION      0.00     0.00     0  00:00           0           0       0.000 ltr
  10000158             JUNCTION      0.00     0.00     0  00:00           0           0       0.000 ltr
  10000159             JUNCTION      0.00     0.00     0  00:00           0           0       0.000 ltr
  10000160             JUNCTION      0.00     0.00     0  00:00           0           0       0.000 ltr
  10000161             JUNCTION      0.00     0.00     0  00:00           0           0       0.000 ltr
  10000162             JUNCTION      0.00     0.00     0  00:00           0           0       0.000 ltr
  10000191             JUNCTION      0.00     0.00     0  00:00           0           0       0.000 ltr
  10000192             JUNCTION      0.00     0.00     0  00:00           0           0       0.000 ltr
  10000193             JUNCTION      0.00     0.00     0  00:00           0           0       0.000 ltr
  10000194             JUNCTION      0.00     0.00     0  00:00           0           0       0.000 ltr
  10000195             JUNCTION      0.00     0.00     0  00:00           0           0       0.000 ltr
  10000196             JUNCTION      0.00     0.00     0  00:00           0           0       0.000 ltr
  10000197             JUNCTION      0.00     0.00     0  00:00           0           0       0.000 ltr
  10000198             JUNCTION      0.00     0.00     0  00:00           0           0       0.000 ltr
  10000199             JUNCTION      0.00     0.00     0  00:00           0           0       0.000 ltr
  10000200             JUNCTION      0.00     0.00     0  00:00           0           0       0.000 ltr
  10000201             JUNCTION      0.00     0.00     0  00:00           0           0       0.000 ltr
  10000202             JUNCTION      0.00     0.00     0  00:00           0           0       0.000 ltr
  10000203             JUNCTION      0.00     0.00     0  00:00           0           0       0.000 ltr
  10000204             JUNCTION      0.00     0.00     0  00:00           0           0       0.000 ltr
  10000259             JUNCTION      0.00     0.00     0  00:00           0           0       0.000 ltr
  10000260             JUNCTION      0.00     0.00     0  00:00           0           0       0.000 ltr
  10000261             JUNCTION      0.00     0.00     0  00:00           0           0       0.000 ltr
  10000262             JUNCTION      0.00     0.00     0  00:00           0           0       0.000 ltr
  10000263             JUNCTION      0.00     0.00     0  00:00           0           0       0.000 ltr
  10000264             JUNCTION      0.00     0.00     0  00:00           0           0       0.000 ltr
  10000265             JUNCTION      0.00     0.00     0  00:00           0           0       0.000 ltr
  10000266             JUNCTION      0.00     0.00     0  00:00           0           0       0.000 ltr
  10000267             JUNCTION      0.00     0.00     0  00:00           0           0       0.000 ltr
  10000268             JUNCTION      0.00     0.00     0  00:00           0           0       0.000 ltr
  10000269             JUNCTION      0.00     0.00     0  00:00           0           0       0.000 ltr
  10000270             JUNCTION      0.00     0.00     0  00:00           0           0       0.000 ltr
  10000271             JUNCTION      0.00     0.00     0  00:00           0           0       0.000 ltr
  10000272             JUNCTION      0.00     0.00     0  00:00           0           0       0.000 ltr
  10000273             JUNCTION      0.00     0.00     0  00:00           0           0       0.000 ltr
  10000274             JUNCTION      0.00     0.00     0  00:00           0           0       0.000 ltr
  10000275             JUNCTION      0.00     0.00     0  00:00           0           0       0.000 ltr
  10000276             JUNCTION      0.00     0.00     0  00:00           0           0       0.000 ltr
  10000277             JUNCTION      0.00     0.00     0  00:00           0           0       0.000 ltr
  10000278             JUNCTION      0.00     0.00     0  00:00           0           0       0.000 ltr
  10000279             JUNCTION      0.00     0.00     0  00:00           0           0       0.000 ltr
  10000280             JUNCTION      0.00     0.00     0  00:00           0           0       0.000 ltr
  10000281             JUNCTION      0.00     0.00     0  00:00           0           0       0.000 ltr
  10000282             JUNCTION      0.00     0.00     0  00:00           0           0       0.000 ltr
  10000283             JUNCTION      0.00     0.00     0  00:00           0           0       0.000 ltr
  10000285             JUNCTION      0.00     0.00     0  00:00           0           0       0.000 ltr
  10000286             JUNCTION      0.00     0.00     0  00:00           0           0       0.000 ltr
  10000287             JUNCTION      0.00     0.00     0  00:00           0           0       0.000 ltr
  10000288             JUNCTION      0.00     0.00     0  00:00           0           0       0.000 ltr
  10000289             JUNCTION      0.00     0.00     0  00:00           0           0       0.000 ltr
  10000290             JUNCTION      0.00     0.00     0  00:00           0           0       0.000 ltr
  10000291             JUNCTION      0.00     0.00     0  00:00           0           0       0.000 ltr
  10000292             JUNCTION      0.00     0.00     0  00:00           0           0       0.000 ltr
  10000293             JUNCTION      0.00     0.00     0  00:00           0           0       0.000 ltr
  10000294             JUNCTION      0.00     0.00     0  00:00           0           0       0.000 ltr
  10000295             JUNCTION      0.00     0.00     0  00:00           0           0       0.000 ltr
  10000296             JUNCTION      0.00     0.00     0  00:00           0           0       0.000 ltr
  10000297             JUNCTION      0.00     0.00     0  00:00           0           0       0.000 ltr
  10000298             JUNCTION      0.00     0.00     0  00:00           0           0       0.000 ltr
  10000299             JUNCTION      0.00     0.00     0  00:00           0           0       0.000 ltr
  10000300             JUNCTION      0.00     0.00     0  00:00           0           0       0.000 ltr
  10000301             JUNCTION      0.00     0.00     0  00:00           0           0       0.000 ltr
  10000302             JUNCTION      0.00     0.00     0  00:00           0           0       0.000 ltr
  10000317             JUNCTION      0.00     0.00     0  00:00           0           0       0.000 ltr
  10000318             JUNCTION      0.00     0.00     0  00:00           0           0       0.000 ltr
  10000366             JUNCTION      0.00     0.00     0  00:00           0           0       0.000 ltr
  10000367             JUNCTION      0.00     0.00     0  00:00           0           0       0.000 ltr
  10000368             JUNCTION      0.00     0.00     0  00:00           0           0       0.000 ltr
  10000369             JUNCTION      0.00     0.00     0  00:00           0           0       0.000 ltr
  10000388             JUNCTION      0.00     0.00     0  00:00           0           0       0.000 ltr
  10000389             JUNCTION      0.00     0.00     0  00:00           0           0       0.000 ltr
  10000390             JUNCTION      0.00     0.00     0  00:00           0           0       0.000 ltr
  10000391             JUNCTION      0.00     0.00     0  00:00           0           0       0.000 ltr
  10000392             JUNCTION      0.00     0.00     0  00:00           0           0       0.000 ltr
  10000393             JUNCTION      0.00     0.00     0  00:00           0           0       0.000 ltr
  10000394             JUNCTION      0.00     0.00     0  00:00           0           0       0.000 ltr
  10000395             JUNCTION      0.00     0.00     0  00:00           0           0       0.000 ltr
  10000396             JUNCTION      0.00     0.00     0  00:00           0           0       0.000 ltr
  10000397             JUNCTION      0.00     0.00     0  00:00           0           0       0.000 ltr
  10000398             JUNCTION      0.00     0.00     0  00:00           0           0       0.000 ltr
  10000399             JUNCTION      0.00     0.00     0  00:00           0           0       0.000 ltr
  10000400             JUNCTION      0.00     0.00     0  00:00           0           0       0.000 ltr
  10000409             JUNCTION      0.00     0.00     0  00:00           0           0       0.000 ltr
  10000410             JUNCTION      0.00     0.00     0  00:00           0           0       0.000 ltr
  10000411             JUNCTION      0.00     0.00     0  00:00           0           0       0.000 ltr
  10000412             JUNCTION      0.00     0.00     0  00:00           0           0       0.000 ltr
  10000413             JUNCTION      0.00     0.00     0  00:00           0           0       0.000 ltr
  10000414             JUNCTION      0.00     0.00     0  00:00           0           0       0.000 ltr
  10000415             JUNCTION      0.00     0.00     0  00:00           0           0       0.000 ltr
  10000416             JUNCTION      0.00     0.00     0  00:00           0           0       0.000 ltr
  10000417             JUNCTION      0.00     0.00     0  00:00           0           0       0.000 ltr
  10000475             JUNCTION      0.00     0.00     0  00:00           0           0       0.000 ltr
  10000476             JUNCTION      0.00     0.00     0  00:00           0           0       0.000 ltr
  10000477             JUNCTION      0.00     0.00     0  00:00           0           0       0.000 ltr
  10000478             JUNCTION      0.00     0.00     0  00:00           0           0       0.000 ltr
  10000484             JUNCTION      0.00     0.00     0  00:00           0           0       0.000 ltr
  10000485             JUNCTION      0.00     0.00     0  00:00           0           0       0.000 ltr
  10000486             JUNCTION      0.00     0.00     0  00:00           0           0       0.000 ltr
  10000487             JUNCTION      0.00     0.00     0  00:00           0           0       0.000 ltr
  10000488             JUNCTION      0.00     0.00     0  00:00           0           0       0.000 ltr
  10000489             JUNCTION      0.00     0.00     0  00:00           0           0       0.000 ltr
  10000490             JUNCTION      0.00     0.00     0  00:00           0           0       0.000 ltr
  10000491             JUNCTION      0.00     0.00     0  00:00           0           0       0.000 ltr
  10000492             JUNCTION      0.00     0.00     0  00:00           0           0       0.000 ltr
  10000493             JUNCTION      0.00     0.00     0  00:00           0           0       0.000 ltr
  10000494             JUNCTION      0.00     0.00     0  00:00           0           0       0.000 ltr
  10000495             JUNCTION      0.00     0.00     0  00:00           0           0       0.000 ltr
  10000503             JUNCTION      0.00     0.00     0  00:00           0           0       0.000 ltr
  10000534             JUNCTION      0.00     0.00     0  00:00           0           0       0.000 ltr
  10000535             JUNCTION      0.00     0.00     0  00:00           0           0       0.000 ltr
  10000536             JUNCTION      0.00     0.00     0  00:00           0           0       0.000 ltr
  10000537             JUNCTION      0.00     0.00     0  00:00           0           0       0.000 ltr
  10000538             JUNCTION      0.00     0.00     0  00:00           0           0       0.000 ltr
  10000545             JUNCTION      0.00     0.00     0  00:00           0           0       0.000 ltr
  10000546             JUNCTION      0.00     0.00     0  00:00           0           0       0.000 ltr
  10000547             JUNCTION      0.00     0.00     0  00:00           0           0       0.000 ltr
  10000548             JUNCTION      0.00     0.00     0  00:00           0           0       0.000 ltr
  10000549             JUNCTION      0.00     0.00     0  00:00           0           0       0.000 ltr
  10000550             JUNCTION      0.00     0.00     0  00:00           0           0       0.000 ltr
  10000551             JUNCTION      0.00     0.00     0  00:00           0           0       0.000 ltr
  10000552             JUNCTION      0.00     0.00     0  00:00           0           0       0.000 ltr
  10000553             JUNCTION      0.00     0.00     0  00:00           0           0       0.000 ltr
  10000554             JUNCTION      0.00     0.00     0  00:00           0           0       0.000 ltr
  10000555             JUNCTION      0.00     0.00     0  00:00           0           0       0.000 ltr
  10000556             JUNCTION      0.00     0.00     0  00:00           0           0       0.000 ltr
  10000557             JUNCTION      0.00     0.00     0  00:00           0           0       0.000 ltr
  10000558             JUNCTION      0.00     0.00     0  00:00           0           0       0.000 ltr
  10000559             JUNCTION      0.00     0.00     0  00:00           0           0       0.000 ltr
  10000560             JUNCTION      0.00     0.00     0  00:00           0           0       0.000 ltr
  10000561             JUNCTION      0.00     0.00     0  00:00           0           0       0.000 ltr
  10000562             JUNCTION      0.00     0.00     0  00:00           0           0       0.000 ltr
  10000563             JUNCTION      0.00     0.00     0  00:00           0           0       0.000 ltr
  10000564             JUNCTION      0.00     0.00     0  00:00           0           0       0.000 ltr
  10000574             JUNCTION      0.00     0.00     0  00:00           0           0       0.000 ltr
  10000575             JUNCTION      0.00     0.00     0  00:00           0           0       0.000 ltr
  10000576             JUNCTION      0.00     0.00     0  00:00           0           0       0.000 ltr
  10000577             JUNCTION      0.00     0.00     0  00:00           0           0       0.000 ltr
  10000578             JUNCTION      0.00     0.00     0  00:00           0           0       0.000 ltr
  10000579             JUNCTION      0.00     0.00     0  00:00           0           0       0.000 ltr
  10000580             JUNCTION      0.00     0.00     0  00:00           0           0       0.000 ltr
  10000581             JUNCTION      0.00     0.00     0  00:00           0           0       0.000 ltr
  10000582             JUNCTION      0.00     0.00     0  00:00           0           0       0.000 ltr
  10000583             JUNCTION      0.00     0.00     0  00:00           0           0       0.000 ltr
  10000602             JUNCTION      0.00     0.00     0  00:00           0           0       0.000 ltr
  10000603             JUNCTION      0.00     0.00     0  00:00           0           0       0.000 ltr
  10000604             JUNCTION      0.00     0.00     0  00:00           0           0       0.000 ltr
  10000605             JUNCTION      0.00     0.00     0  00:00           0           0       0.000 ltr
  10000606             JUNCTION      0.00     0.00     0  00:00           0           0       0.000 ltr
  10000607             JUNCTION      0.00     0.00     0  00:00           0           0       0.000 ltr
  10000608             JUNCTION      0.00     0.00     0  00:00           0           0       0.000 ltr
  10000644             JUNCTION      0.00     0.00     0  00:00           0           0       0.000 ltr
  10000645             JUNCTION      0.00     0.00     0  00:00           0           0       0.000 ltr
  10001372             JUNCTION      0.00     0.00     0  00:00           0           0       0.000 ltr
  10001373             JUNCTION      0.00     0.00     0  00:00           0           0       0.000 ltr
  10001374             JUNCTION      0.00     0.00     0  00:00           0           0       0.000 ltr
  10001375             JUNCTION      0.00     0.00     0  00:00           0           0       0.000 ltr
  10001376             JUNCTION      0.00     0.00     0  00:00           0           0       0.000 ltr
  10001479             JUNCTION      0.00     0.00     0  00:00           0           0       0.000 ltr
  10001508             JUNCTION      0.00     0.00     0  00:00           0           0       0.000 ltr
  10001509             JUNCTION      0.00     0.00     0  00:00           0           0       0.000 ltr
  10001510             JUNCTION      0.00     0.00     0  00:00           0           0       0.000 ltr
  10001512             JUNCTION      0.00     0.00     0  00:00           0           0       0.000 ltr
  10001513             JUNCTION      0.00     0.00     0  00:00           0           0       0.000 ltr
  10001514             JUNCTION      0.00     0.00     0  00:00           0           0       0.000 ltr
  10001515             JUNCTION      0.00     0.00     0  00:00           0           0       0.000 ltr
  10001906             JUNCTION      0.00     0.00     0  00:00           0           0       0.000 ltr
  10001907             JUNCTION      0.00     0.00     0  00:00           0           0       0.000 ltr
  10001908             JUNCTION      0.00     0.00     0  00:00           0           0       0.000 ltr
  10001909             JUNCTION      0.00     0.00     0  00:00           0           0       0.000 ltr
  10001910             JUNCTION      0.00     0.00     0  00:00           0           0       0.000 ltr
  10001911             JUNCTION      0.00     0.00     0  00:00           0           0       0.000 ltr
  10001912             JUNCTION      0.00     0.00     0  00:00           0           0       0.000 ltr
  10001913             JUNCTION      0.00     0.00     0  00:00           0           0       0.000 ltr
  10001914             JUNCTION      0.00     0.00     0  00:00           0           0       0.000 ltr
  10410812             JUNCTION      0.00     0.00     0  00:00           0           0       0.000 ltr
  10410813             JUNCTION      0.00     0.00     0  00:00           0           0       0.000 ltr
  10410819             JUNCTION      0.00     0.00     0  00:00           0           0       0.000 ltr
  10410821             JUNCTION      0.00     0.00     0  00:00           0           0       0.000 ltr
  10410852             JUNCTION      0.00     0.00     0  00:00           0           0       0.000 ltr
  10410853             JUNCTION      0.00     0.00     0  00:00           0           0       0.000 ltr
  1045734              JUNCTION      0.00     0.00     0  00:00           0           0       0.000 ltr
  1045736              JUNCTION      0.00     0.00     0  00:00           0           0       0.000 ltr
  1046328              JUNCTION      0.00     0.00     0  00:00           0           0       0.000 ltr
  1046859              JUNCTION      0.00     0.00     0  00:00           0           0       0.000 ltr
  1048818              JUNCTION      0.00     0.00     0  00:00           0           0       0.000 ltr
  1048906              JUNCTION      0.00     0.00     0  00:00           0           0       0.000 ltr
  1048907              JUNCTION      0.00     0.00     0  00:00           0           0       0.000 ltr
  1049082              JUNCTION      0.00     0.00     0  00:00           0           0       0.000 ltr
  1049157              JUNCTION      0.00     0.00     0  00:00           0           0       0.000 ltr
  1049159              JUNCTION      0.00     0.00     0  00:00           0           0       0.000 ltr
  1049163              JUNCTION      0.00     0.00     0  00:00           0           0       0.000 ltr
  1049164              JUNCTION      0.00     0.00     0  00:00           0           0       0.000 ltr
  1049165              JUNCTION      0.00     0.00     0  00:00           0           0       0.000 ltr
  14000170             JUNCTION      0.00     0.00     0  00:00           0           0       0.000 ltr
  NIAGARA_WWTP_INLET   JUNCTION      0.00     0.00     0  00:00           0           0       0.000 ltr
  10001369             OUTFALL       0.00     0.00     0  00:00           0           0       0.000 ltr
  1045729              OUTFALL       0.00     0.00     0  00:00           0           0       0.000 ltr
  1045730              OUTFALL       0.00     0.00     0  00:00           0           0       0.000 ltr
  1045742              OUTFALL       0.00     0.00     0  00:00           0           0       0.000 ltr
  1045743              OUTFALL       0.00     0.00     0  00:00           0           0       0.000 ltr
  1048905              OUTFALL       0.00     0.00     0  00:00           0           0       0.000 ltr
  HIGH_LIFT_SPS_OVERFLOW_OUTFALL OUTFALL       0.00     0.00     0  00:00           0           0       0.000 ltr
  NIAGARA_WWTP_BYPASS_OUTFALL OUTFALL       0.00     0.00     0  00:00           0           0       0.000 ltr
  PELLS_CREEK_CSO      OUTFALL       0.00     0.00     0  00:00           0           0       0.000 ltr
  14000026_1           STORAGE       0.00     0.00     0  00:00           0       0.129       0.000
  14000030_1           STORAGE       0.00     0.00     0  00:00           0     0.00989       0.000
  14000073_1           STORAGE       0.00     0.00     0  00:00           0     0.00189       0.000
  14000101_1           STORAGE       0.00     0.00     0  00:00           0      0.0255       0.000
  14000109_1           STORAGE       0.00     0.00     0  00:00           0      0.0124       0.000
  14000131             STORAGE       0.00     0.00     0  00:00           0     0.00405       0.000
  14000137_1           STORAGE       0.00     0.00     0  00:00           0      0.0285       0.000
  14000163             STORAGE       0.00     0.00     0  00:00           0           0       0.000 ltr
  14000169             STORAGE       0.00     0.00     0  00:00           0           0       0.000 ltr
  
  
  **********************
  Node Surcharge Summary
  **********************
  
  No nodes were surcharged.
  
  
  *********************
  Node Flooding Summary
  *********************
  
  No nodes were flooded.
  
  
  **********************
  Storage Volume Summary
  **********************
  
  --------------------------------------------------------------------------------------------------
                         Average     Avg  Evap Exfil       Maximum     Max    Time of Max    Maximum
                          Volume    Pcnt  Pcnt  Pcnt        Volume    Pcnt     Occurrence    Outflow
  Storage Unit           1000 m3    Full  Loss  Loss       1000 m3    Full    days hr:min        LPS
  --------------------------------------------------------------------------------------------------
  14000026_1           -nan(ind)    -nan(ind)     0     0         0.000       0       0  00:00       0.00
  14000030_1           -nan(ind)    -nan(ind)     0     0         0.000       0       0  00:00       0.00
  14000073_1           -nan(ind)    -nan(ind)     0     0         0.000       0       0  00:00       0.00
  14000101_1           -nan(ind)    -nan(ind)     0     0         0.000       0       0  00:00       0.00
  14000109_1           -nan(ind)    -nan(ind)     0     0         0.000       0       0  00:00       0.00
  14000131             -nan(ind)    -nan(ind)     0     0         0.000       0       0  00:00       0.00
  14000137_1           -nan(ind)    -nan(ind)     0     0         0.000       0       0  00:00       0.00
  14000163             -nan(ind)    -nan(ind)     0     0         0.000       0       0  00:00       0.00
  14000169             -nan(ind)    -nan(ind)     0     0         0.000       0       0  00:00       0.00
  
  
  ***********************
  Outfall Loading Summary
  ***********************
  
  -----------------------------------------------------------
                         Flow       Avg       Max       Total
                         Freq      Flow      Flow      Volume
  Outfall Node           Pcnt       LPS       LPS    10^6 ltr
  -----------------------------------------------------------
  10001369            -nan(ind)      0.00      0.00       0.000
  1045729             -nan(ind)      0.00      0.00       0.000
  1045730             -nan(ind)      0.00      0.00       0.000
  1045742             -nan(ind)      0.00      0.00       0.000
  1045743             -nan(ind)      0.00      0.00       0.000
  1048905             -nan(ind)      0.00      0.00       0.000
  HIGH_LIFT_SPS_OVERFLOW_OUTFALL-nan(ind)      0.00      0.00       0.000
  NIAGARA_WWTP_BYPASS_OUTFALL-nan(ind)      0.00      0.00       0.000
  PELLS_CREEK_CSO     -nan(ind)      0.00      0.00       0.000
  -----------------------------------------------------------
  System              -nan(ind)      0.00      0.00       0.000
  
  
  ********************
  Link Flow Summary
  ********************
  
  -----------------------------------------------------------------------------
                                 Maximum  Time of Max   Maximum    Max/    Max/
                                  |Flow|   Occurrence   |Veloc|    Full    Full
  Link                 Type          LPS  days hr:min     m/sec    Flow   Depth
  -----------------------------------------------------------------------------
  10411519             CONDUIT      0.00     0  00:00      0.00    0.00    0.00
  10411521             CONDUIT      0.00     0  00:00      0.00    0.00    0.00
  10411522             CONDUIT      0.00     0  00:00      0.00    0.00    0.00
  10411523             CONDUIT      0.00     0  00:00      0.00    0.00    0.00
  10411529             CONDUIT      0.00     0  00:00      0.00    0.00    0.00
  10413001             CONDUIT      0.00     0  00:00      0.00    0.00    0.00
  10413002             CONDUIT      0.00     0  00:00      0.00    0.00    0.00
  10414018             CONDUIT      0.00     0  00:00      0.00    0.00    0.00
  10414277             CONDUIT      0.00     0  00:00      0.00    0.00    0.00
  10414278             CONDUIT      0.00     0  00:00      0.00    0.00    0.00
  10414538             CONDUIT      0.00     0  00:00      0.00    0.00    0.00
  10414652             CONDUIT      0.00     0  00:00      0.00    0.00    0.00
  10414957             CONDUIT      0.00     0  00:00      0.00    0.00    0.00
  10414991             CONDUIT      0.00     0  00:00      0.00    0.00    0.00
  10414992             CONDUIT      0.00     0  00:00      0.00    0.00    0.00
  10414993             CONDUIT      0.00     0  00:00      0.00    0.00    0.00
  10415071             CONDUIT      0.00     0  00:00      0.00    0.00    0.00
  10415072             CONDUIT      0.00     0  00:00      0.00    0.00    0.00
  10415073             CONDUIT      0.00     0  00:00      0.00    0.00    0.00
  10417004             CONDUIT      0.00     0  00:00      0.00    0.00    0.00
  10417023             CONDUIT      0.00     0  00:00      0.00    0.00    0.00
  10417026             CONDUIT      0.00     0  00:00      0.00    0.00    0.00
  19000010             CONDUIT      0.00     0  00:00      0.00    0.00    0.00
  19000011             CONDUIT      0.00     0  00:00      0.00    0.00    0.00
  19000012             CONDUIT      0.00     0  00:00      0.00    0.00    0.00
  19000013             CONDUIT      0.00     0  00:00      0.00    0.00    0.00
  19000045             CONDUIT      0.00     0  00:00      0.00    0.00    0.00
  19000046             CONDUIT      0.00     0  00:00      0.00    0.00    0.00
  19000047             CONDUIT      0.00     0  00:00      0.00    0.00    0.00
  19000049             CONDUIT      0.00     0  00:00      0.00    0.00    0.00
  19000050             CONDUIT      0.00     0  00:00      0.00    0.00    0.00
  19000051             CONDUIT      0.00     0  00:00      0.00    0.00    0.00
  19000052             CONDUIT      0.00     0  00:00      0.00    0.00    0.00
  19000053             CONDUIT      0.00     0  00:00      0.00    0.00    0.00
  19000054             CONDUIT      0.00     0  00:00      0.00    0.00    0.00
  19000088             CONDUIT      0.00     0  00:00      0.00    0.00    0.00
  19000089             CONDUIT      0.00     0  00:00      0.00    0.00    0.00
  19000090             CONDUIT      0.00     0  00:00      0.00    0.00    0.00
  19000091             CONDUIT      0.00     0  00:00      0.00    0.00    0.00
  19000121             CONDUIT      0.00     0  00:00      0.00    0.00    0.00
  19000125             CONDUIT      0.00     0  00:00      0.00    0.00    0.00
  19000126             CONDUIT      0.00     0  00:00      0.00    0.00    0.00
  19000127             CONDUIT      0.00     0  00:00      0.00    0.00    0.00
  19000128             CONDUIT      0.00     0  00:00      0.00    0.00    0.00
  19000129             CONDUIT      0.00     0  00:00      0.00    0.00    0.00
  19000130             CONDUIT      0.00     0  00:00      0.00    0.00    0.00
  19000131             CONDUIT      0.00     0  00:00      0.00    0.00    0.00
  19000132             CONDUIT      0.00     0  00:00      0.00    0.00    0.00
  19000133             CONDUIT      0.00     0  00:00      0.00    0.00    0.00
  19000134             CONDUIT      0.00     0  00:00      0.00    0.00    0.00
  19000135             CONDUIT      0.00     0  00:00      0.00    0.00    0.00
  19000136             CONDUIT      0.00     0  00:00      0.00    0.00    0.00
  19000137             CONDUIT      0.00     0  00:00      0.00    0.00    0.00
  19000138             CONDUIT      0.00     0  00:00      0.00    0.00    0.00
  19000139             CONDUIT      0.00     0  00:00      0.00    0.00    0.00
  19000140             CONDUIT      0.00     0  00:00      0.00    0.00    0.00
  19000148             CONDUIT      0.00     0  00:00      0.00    0.00    0.00
  19000149             CONDUIT      0.00     0  00:00      0.00    0.00    0.00
  19000150             CONDUIT      0.00     0  00:00      0.00    0.00    0.00
  19000151             CONDUIT      0.00     0  00:00      0.00    0.00    0.00
  19000152             CONDUIT      0.00     0  00:00      0.00    0.00    0.00
  19000159             CONDUIT      0.00     0  00:00      0.00    0.00    0.00
  19000161             CONDUIT      0.00     0  00:00      0.00    0.00    0.00
  19000163             CONDUIT      0.00     0  00:00      0.00    0.00    0.00
  19000164             CONDUIT      0.00     0  00:00      0.00    0.00    0.00
  19000165             CONDUIT      0.00     0  00:00      0.00    0.00    0.00
  19000166             CONDUIT      0.00     0  00:00      0.00    0.00    0.00
  19000196             CONDUIT      0.00     0  00:00      0.00    0.00    0.00
  19000209             CONDUIT      0.00     0  00:00      0.00    0.00    0.00
  19000210             CONDUIT      0.00     0  00:00      0.00    0.00    0.00
  19000211             CONDUIT      0.00     0  00:00      0.00    0.00    0.00
  19000212             CONDUIT      0.00     0  00:00      0.00    0.00    0.00
  19000213             CONDUIT      0.00     0  00:00      0.00    0.00    0.00
  19000214             CONDUIT      0.00     0  00:00      0.00    0.00    0.00
  19000215             CONDUIT      0.00     0  00:00      0.00    0.00    0.00
  19000216             CONDUIT      0.00     0  00:00      0.00    0.00    0.00
  19000217             CONDUIT      0.00     0  00:00      0.00    0.00    0.00
  19000224             CONDUIT      0.00     0  00:00      0.00    0.00    0.00
  19000239             CONDUIT      0.00     0  00:00      0.00    0.00    0.00
  19000241             CONDUIT      0.00     0  00:00      0.00    0.00    0.00
  19000245             CONDUIT      0.00     0  00:00      0.00    0.00    0.00
  19000246             CONDUIT      0.00     0  00:00      0.00    0.00    0.00
  19000247             CONDUIT      0.00     0  00:00      0.00    0.00    0.00
  19000248             CONDUIT      0.00     0  00:00      0.00    0.00    0.00
  19000249             CONDUIT      0.00     0  00:00      0.00    0.00    0.00
  19000253             CONDUIT      0.00     0  00:00      0.00    0.00    0.00
  19000268             CONDUIT      0.00     0  00:00      0.00    0.00    0.00
  19000288             CONDUIT      0.00     0  00:00      0.00    0.00    0.00
  19000289             CONDUIT      0.00     0  00:00      0.00    0.00    0.00
  19000290             CONDUIT      0.00     0  00:00      0.00    0.00    0.00
  19000291             CONDUIT      0.00     0  00:00      0.00    0.00    0.00
  19000292             CONDUIT      0.00     0  00:00      0.00    0.00    0.00
  19000294             CONDUIT      0.00     0  00:00      0.00    0.00    0.00
  19000296             CONDUIT      0.00     0  00:00      0.00    0.00    0.00
  19000297             CONDUIT      0.00     0  00:00      0.00    0.00    0.00
  19000298             CONDUIT      0.00     0  00:00      0.00    0.00    0.00
  19000299             CONDUIT      0.00     0  00:00      0.00    0.00    0.00
  19000300             CONDUIT      0.00     0  00:00      0.00    0.00    0.00
  19000301             CONDUIT      0.00     0  00:00      0.00    0.00    0.00
  19000302             CONDUIT      0.00     0  00:00      0.00    0.00    0.00
  19000303             CONDUIT      0.00     0  00:00      0.00    0.00    0.00
  19000304             CONDUIT      0.00     0  00:00      0.00    0.00    0.00
  19000305             CONDUIT      0.00     0  00:00      0.00    0.00    0.00
  19000306             CONDUIT      0.00     0  00:00      0.00    0.00    0.00
  19000307             CONDUIT      0.00     0  00:00      0.00    0.00    0.00
  19000308             CONDUIT      0.00     0  00:00      0.00    0.00    0.00
  19000309             CONDUIT      0.00     0  00:00      0.00    0.00    0.00
  19000310             CONDUIT      0.00     0  00:00      0.00    0.00    0.00
  19000311             CONDUIT      0.00     0  00:00      0.00    0.00    0.00
  19000312             CONDUIT      0.00     0  00:00      0.00    0.00    0.00
  19000313             CONDUIT      0.00     0  00:00      0.00    0.00    0.00
  19000314             CONDUIT      0.00     0  00:00      0.00    0.00    0.00
  19000315             CONDUIT      0.00     0  00:00      0.00    0.00    0.00
  19000316             CONDUIT      0.00     0  00:00      0.00    0.00    0.00
  19000317             CONDUIT      0.00     0  00:00      0.00    0.00    0.00
  19000318             CONDUIT      0.00     0  00:00      0.00    0.00    0.00
  19000319             CONDUIT      0.00     0  00:00      0.00    0.00    0.00
  19000320             CONDUIT      0.00     0  00:00      0.00    0.00    0.00
  19000321             CONDUIT      0.00     0  00:00      0.00    0.00    0.00
  19000322             CONDUIT      0.00     0  00:00      0.00    0.00    0.00
  19000333             CONDUIT      0.00     0  00:00      0.00    0.00    0.00
  19000334             CONDUIT      0.00     0  00:00      0.00    0.00    0.00
  19000335             CONDUIT      0.00     0  00:00      0.00    0.00    0.00
  19000350             CONDUIT      0.00     0  00:00      0.00    0.00    0.00
  19000351             CONDUIT      0.00     0  00:00      0.00    0.00    0.00
  19000352             CONDUIT      0.00     0  00:00      0.00    0.00    0.00
  19000353             CONDUIT      0.00     0  00:00      0.00    0.00    0.00
  19000354             CONDUIT      0.00     0  00:00      0.00    0.00    0.00
  19000358             CONDUIT      0.00     0  00:00      0.00    0.00    0.00
  19000359             CONDUIT      0.00     0  00:00      0.00    0.00    0.00
  19000364             CONDUIT      0.00     0  00:00      0.00    0.00    0.00
  19000365             CONDUIT      0.00     0  00:00      0.00    0.00    0.00
  19000366             CONDUIT      0.00     0  00:00      0.00    0.00    0.00
  19000367             CONDUIT      0.00     0  00:00      0.00    0.00    0.00
  19000368             CONDUIT      0.00     0  00:00      0.00    0.00    0.00
  19000369             CONDUIT      0.00     0  00:00      0.00    0.00    0.00
  19000370             CONDUIT      0.00     0  00:00      0.00    0.00    0.00
  19000371             CONDUIT      0.00     0  00:00      0.00    0.00    0.00
  19000372             CONDUIT      0.00     0  00:00      0.00    0.00    0.00
  19000374             CONDUIT      0.00     0  00:00      0.00    0.00    0.00
  19000375             CONDUIT      0.00     0  00:00      0.00    0.00    0.00
  19000426             CONDUIT      0.00     0  00:00      0.00    0.00    0.00
  19000427             CONDUIT      0.00     0  00:00      0.00    0.00    0.00
  19000428             CONDUIT      0.00     0  00:00      0.00    0.00    0.00
  19000429             CONDUIT      0.00     0  00:00      0.00    0.00    0.00
  19000430             CONDUIT      0.00     0  00:00      0.00    0.00    0.00
  19000431             CONDUIT      0.00     0  00:00      0.00    0.00    0.00
  19000432             CONDUIT      0.00     0  00:00      0.00    0.00    0.00
  19000433             CONDUIT      0.00     0  00:00      0.00    0.00    0.00
  19000434             CONDUIT      0.00     0  00:00      0.00    0.00    0.00
  19000435             CONDUIT      0.00     0  00:00      0.00    0.00    0.00
  19000439             CONDUIT      0.00     0  00:00      0.00    0.00    0.00
  19000440             CONDUIT      0.00     0  00:00      0.00    0.00    0.00
  19000441             CONDUIT      0.00     0  00:00      0.00    0.00    0.00
  19000442             CONDUIT      0.00     0  00:00      0.00    0.00    0.00
  19000465             CONDUIT      0.00     0  00:00      0.00    0.00    0.00
  19000503             CONDUIT      0.00     0  00:00      0.00    0.00    0.00
  19000504             CONDUIT      0.00     0  00:00      0.00    0.00    0.00
  19000505             CONDUIT      0.00     0  00:00      0.00    0.00    0.00
  19000506             CONDUIT      0.00     0  00:00      0.00    0.00    0.00
  19000507             CONDUIT      0.00     0  00:00      0.00    0.00    0.00
  19000508             CONDUIT      0.00     0  00:00      0.00    0.00    0.00
  19000509             CONDUIT      0.00     0  00:00      0.00    0.00    0.00
  19000510             CONDUIT      0.00     0  00:00      0.00    0.00    0.00
  19000511             CONDUIT      0.00     0  00:00      0.00    0.00    0.00
  19000551             CONDUIT      0.00     0  00:00      0.00    0.00    0.00
  19000585             CONDUIT      0.00     0  00:00      0.00    0.00    0.00
  19000587             CONDUIT      0.00     0  00:00      0.00    0.00    0.00
  19000588             CONDUIT      0.00     0  00:00      0.00    0.00    0.00
  19000589             CONDUIT      0.00     0  00:00      0.00    0.00    0.00
  19000606             CONDUIT      0.00     0  00:00      0.00    0.00    0.00
  19000607             CONDUIT      0.00     0  00:00      0.00    0.00    0.00
  19000608             CONDUIT      0.00     0  00:00      0.00    0.00    0.00
  19000609             CONDUIT      0.00     0  00:00      0.00    0.00    0.00
  19000610             CONDUIT      0.00     0  00:00      0.00    0.00    0.00
  19000611             CONDUIT      0.00     0  00:00      0.00    0.00    0.00
  19000612             CONDUIT      0.00     0  00:00      0.00    0.00    0.00
  19000613             CONDUIT      0.00     0  00:00      0.00    0.00    0.00
  19000615             CONDUIT      0.00     0  00:00      0.00    0.00    0.00
  19000618             CONDUIT      0.00     0  00:00      0.00    0.00    0.00
  19000619             CONDUIT      0.00     0  00:00      0.00    0.00    0.00
  19000620             CONDUIT      0.00     0  00:00      0.00    0.00    0.00
  19000621             CONDUIT      0.00     0  00:00      0.00    0.00    0.00
  19000622             CONDUIT      0.00     0  00:00      0.00    0.00    0.00
  19000666             CONDUIT      0.00     0  00:00      0.00    0.00    0.00
  19000667             CONDUIT      0.00     0  00:00      0.00    0.00    0.00
  19000668             CONDUIT      0.00     0  00:00      0.00    0.00    0.00
  19000669             CONDUIT      0.00     0  00:00      0.00    0.00    0.00
  19000670             CONDUIT      0.00     0  00:00      0.00    0.00    0.00
  19000671             CONDUIT      0.00     0  00:00      0.00    0.00    0.00
  19000672             CONDUIT      0.00     0  00:00      0.00    0.00    0.00
  19000673             CONDUIT      0.00     0  00:00      0.00    0.00    0.00
  19000674             CONDUIT      0.00     0  00:00      0.00    0.00    0.00
  19000679             CONDUIT      0.00     0  00:00      0.00    0.00    0.00
  19000684             CONDUIT      0.00     0  00:00      0.00    0.00    0.00
  19000686             CONDUIT      0.00     0  00:00      0.00    0.00    0.00
  19000687             CONDUIT      0.00     0  00:00      0.00    0.00    0.00
  19000688             CONDUIT      0.00     0  00:00      0.00    0.00    0.00
  19000689             CONDUIT      0.00     0  00:00      0.00    0.00    0.00
  19000690             CONDUIT      0.00     0  00:00      0.00    0.00    0.00
  19000691             CONDUIT      0.00     0  00:00      0.00    0.00    0.00
  19000692             CONDUIT      0.00     0  00:00      0.00    0.00    0.00
  19000693             CONDUIT      0.00     0  00:00      0.00    0.00    0.00
  19000694             CONDUIT      0.00     0  00:00      0.00    0.00    0.00
  19000695             CONDUIT      0.00     0  00:00      0.00    0.00    0.00
  19000696             CONDUIT      0.00     0  00:00      0.00    0.00    0.00
  19000823             CONDUIT      0.00     0  00:00      0.00    0.00    0.00
  19001284             CONDUIT      0.00     0  00:00      0.00    0.00    0.00
  19001285             CONDUIT      0.00     0  00:00      0.00    0.00    0.00
  19001336             CONDUIT      0.00     0  00:00      0.00    0.00    0.00
  19001337             CONDUIT      0.00     0  00:00      0.00    0.00    0.00
  19001338             CONDUIT      0.00     0  00:00      0.00    0.00    0.00
  19001339             CONDUIT      0.00     0  00:00      0.00    0.00    0.00
  19001447             CONDUIT      0.00     0  00:00      0.00    0.00    0.00
  19001448             CONDUIT      0.00     0  00:00      0.00    0.00    0.00
  19001487             CONDUIT      0.00     0  00:00      0.00    0.00    0.00
  19001488             CONDUIT      0.00     0  00:00      0.00    0.00    0.00
  19001489             CONDUIT      0.00     0  00:00      0.00    0.00    0.00
  19001490             CONDUIT      0.00     0  00:00      0.00    0.00    0.00
  19001493             CONDUIT      0.00     0  00:00      0.00    0.00    0.00
  19001494             CONDUIT      0.00     0  00:00      0.00    0.00    0.00
  19001495             CONDUIT      0.00     0  00:00      0.00    0.00    0.00
  19001496             CONDUIT      0.00     0  00:00      0.00    0.00    0.00
[...]
  19000305               13.45   -nan(ind)  -nan(ind)  -nan(ind)  -nan(ind)  -nan(ind)  -nan(ind)  -nan(ind)  -nan(ind)  -nan(ind)
  19000306                2.41   -nan(ind)  -nan(ind)  -nan(ind)  -nan(ind)  -nan(ind)  -nan(ind)  -nan(ind)  -nan(ind)  -nan(ind)
  19000307                1.00   -nan(ind)  -nan(ind)  -nan(ind)  -nan(ind)  -nan(ind)  -nan(ind)  -nan(ind)  -nan(ind)  -nan(ind)
  19000308                1.00   -nan(ind)  -nan(ind)  -nan(ind)  -nan(ind)  -nan(ind)  -nan(ind)  -nan(ind)  -nan(ind)  -nan(ind)
  19000309                1.00   -nan(ind)  -nan(ind)  -nan(ind)  -nan(ind)  -nan(ind)  -nan(ind)  -nan(ind)  -nan(ind)  -nan(ind)
  19000310                1.00   -nan(ind)  -nan(ind)  -nan(ind)  -nan(ind)  -nan(ind)  -nan(ind)  -nan(ind)  -nan(ind)  -nan(ind)
  19000311                1.00   -nan(ind)  -nan(ind)  -nan(ind)  -nan(ind)  -nan(ind)  -nan(ind)  -nan(ind)  -nan(ind)  -nan(ind)
  19000312                1.00   -nan(ind)  -nan(ind)  -nan(ind)  -nan(ind)  -nan(ind)  -nan(ind)  -nan(ind)  -nan(ind)  -nan(ind)
  19000313                1.00   -nan(ind)  -nan(ind)  -nan(ind)  -nan(ind)  -nan(ind)  -nan(ind)  -nan(ind)  -nan(ind)  -nan(ind)
  19000314                2.39   -nan(ind)  -nan(ind)  -nan(ind)  -nan(ind)  -nan(ind)  -nan(ind)  -nan(ind)  -nan(ind)  -nan(ind)
  19000315                1.00   -nan(ind)  -nan(ind)  -nan(ind)  -nan(ind)  -nan(ind)  -nan(ind)  -nan(ind)  -nan(ind)  -nan(ind)
  19000316                1.00   -nan(ind)  -nan(ind)  -nan(ind)  -nan(ind)  -nan(ind)  -nan(ind)  -nan(ind)  -nan(ind)  -nan(ind)
  19000317                1.00   -nan(ind)  -nan(ind)  -nan(ind)  -nan(ind)  -nan(ind)  -nan(ind)  -nan(ind)  -nan(ind)  -nan(ind)
  19000318                1.00   -nan(ind)  -nan(ind)  -nan(ind)  -nan(ind)  -nan(ind)  -nan(ind)  -nan(ind)  -nan(ind)  -nan(ind)
  19000319                1.00   -nan(ind)  -nan(ind)  -nan(ind)  -nan(ind)  -nan(ind)  -nan(ind)  -nan(ind)  -nan(ind)  -nan(ind)
  19000320                1.00   -nan(ind)  -nan(ind)  -nan(ind)  -nan(ind)  -nan(ind)  -nan(ind)  -nan(ind)  -nan(ind)  -nan(ind)
  19000321                1.00   -nan(ind)  -nan(ind)  -nan(ind)  -nan(ind)  -nan(ind)  -nan(ind)  -nan(ind)  -nan(ind)  -nan(ind)
  19000322                1.00   -nan(ind)  -nan(ind)  -nan(ind)  -nan(ind)  -nan(ind)  -nan(ind)  -nan(ind)  -nan(ind)  -nan(ind)
  19000333                1.00   -nan(ind)  -nan(ind)  -nan(ind)  -nan(ind)  -nan(ind)  -nan(ind)  -nan(ind)  -nan(ind)  -nan(ind)
  19000334                2.73   -nan(ind)  -nan(ind)  -nan(ind)  -nan(ind)  -nan(ind)  -nan(ind)  -nan(ind)  -nan(ind)  -nan(ind)
  19000335                1.00   -nan(ind)  -nan(ind)  -nan(ind)  -nan(ind)  -nan(ind)  -nan(ind)  -nan(ind)  -nan(ind)  -nan(ind)
  19000350                2.35   -nan(ind)  -nan(ind)  -nan(ind)  -nan(ind)  -nan(ind)  -nan(ind)  -nan(ind)  -nan(ind)  -nan(ind)
  19000351                1.00   -nan(ind)  -nan(ind)  -nan(ind)  -nan(ind)  -nan(ind)  -nan(ind)  -nan(ind)  -nan(ind)  -nan(ind)
  19000352                1.00   -nan(ind)  -nan(ind)  -nan(ind)  -nan(ind)  -nan(ind)  -nan(ind)  -nan(ind)  -nan(ind)  -nan(ind)
  19000353                1.00   -nan(ind)  -nan(ind)  -nan(ind)  -nan(ind)  -nan(ind)  -nan(ind)  -nan(ind)  -nan(ind)  -nan(ind)
  19000354                1.00   -nan(ind)  -nan(ind)  -nan(ind)  -nan(ind)  -nan(ind)  -nan(ind)  -nan(ind)  -nan(ind)  -nan(ind)
  19000358                1.00   -nan(ind)  -nan(ind)  -nan(ind)  -nan(ind)  -nan(ind)  -nan(ind)  -nan(ind)  -nan(ind)  -nan(ind)
  19000359                1.55   -nan(ind)  -nan(ind)  -nan(ind)  -nan(ind)  -nan(ind)  -nan(ind)  -nan(ind)  -nan(ind)  -nan(ind)
  19000364                1.00   -nan(ind)  -nan(ind)  -nan(ind)  -nan(ind)  -nan(ind)  -nan(ind)  -nan(ind)  -nan(ind)  -nan(ind)
  19000365                1.00   -nan(ind)  -nan(ind)  -nan(ind)  -nan(ind)  -nan(ind)  -nan(ind)  -nan(ind)  -nan(ind)  -nan(ind)
  19000366                1.00   -nan(ind)  -nan(ind)  -nan(ind)  -nan(ind)  -nan(ind)  -nan(ind)  -nan(ind)  -nan(ind)  -nan(ind)
  19000367                1.00   -nan(ind)  -nan(ind)  -nan(ind)  -nan(ind)  -nan(ind)  -nan(ind)  -nan(ind)  -nan(ind)  -nan(ind)
  19000368                1.00   -nan(ind)  -nan(ind)  -nan(ind)  -nan(ind)  -nan(ind)  -nan(ind)  -nan(ind)  -nan(ind)  -nan(ind)
  19000369                1.00   -nan(ind)  -nan(ind)  -nan(ind)  -nan(ind)  -nan(ind)  -nan(ind)  -nan(ind)  -nan(ind)  -nan(ind)
  19000370                1.00   -nan(ind)  -nan(ind)  -nan(ind)  -nan(ind)  -nan(ind)  -nan(ind)  -nan(ind)  -nan(ind)  -nan(ind)
  19000371                1.00   -nan(ind)  -nan(ind)  -nan(ind)  -nan(ind)  -nan(ind)  -nan(ind)  -nan(ind)  -nan(ind)  -nan(ind)
  19000372                1.00   -nan(ind)  -nan(ind)  -nan(ind)  -nan(ind)  -nan(ind)  -nan(ind)  -nan(ind)  -nan(ind)  -nan(ind)
  19000374                7.14   -nan(ind)  -nan(ind)  -nan(ind)  -nan(ind)  -nan(ind)  -nan(ind)  -nan(ind)  -nan(ind)  -nan(ind)
  19000375                1.00   -nan(ind)  -nan(ind)  -nan(ind)  -nan(ind)  -nan(ind)  -nan(ind)  -nan(ind)  -nan(ind)  -nan(ind)
  19000426                1.00   -nan(ind)  -nan(ind)  -nan(ind)  -nan(ind)  -nan(ind)  -nan(ind)  -nan(ind)  -nan(ind)  -nan(ind)
  19000427                1.00   -nan(ind)  -nan(ind)  -nan(ind)  -nan(ind)  -nan(ind)  -nan(ind)  -nan(ind)  -nan(ind)  -nan(ind)
  19000428                1.00   -nan(ind)  -nan(ind)  -nan(ind)  -nan(ind)  -nan(ind)  -nan(ind)  -nan(ind)  -nan(ind)  -nan(ind)
  19000429                1.00   -nan(ind)  -nan(ind)  -nan(ind)  -nan(ind)  -nan(ind)  -nan(ind)  -nan(ind)  -nan(ind)  -nan(ind)
  19000430                1.00   -nan(ind)  -nan(ind)  -nan(ind)  -nan(ind)  -nan(ind)  -nan(ind)  -nan(ind)  -nan(ind)  -nan(ind)
  19000431                1.00   -nan(ind)  -nan(ind)  -nan(ind)  -nan(ind)  -nan(ind)  -nan(ind)  -nan(ind)  -nan(ind)  -nan(ind)
  19000432                1.00   -nan(ind)  -nan(ind)  -nan(ind)  -nan(ind)  -nan(ind)  -nan(ind)  -nan(ind)  -nan(ind)  -nan(ind)
  19000433                1.00   -nan(ind)  -nan(ind)  -nan(ind)  -nan(ind)  -nan(ind)  -nan(ind)  -nan(ind)  -nan(ind)  -nan(ind)
  19000434                1.00   -nan(ind)  -nan(ind)  -nan(ind)  -nan(ind)  -nan(ind)  -nan(ind)  -nan(ind)  -nan(ind)  -nan(ind)
  19000435                1.00   -nan(ind)  -nan(ind)  -nan(ind)  -nan(ind)  -nan(ind)  -nan(ind)  -nan(ind)  -nan(ind)  -nan(ind)
  19000439                1.00   -nan(ind)  -nan(ind)  -nan(ind)  -nan(ind)  -nan(ind)  -nan(ind)  -nan(ind)  -nan(ind)  -nan(ind)
  19000440                4.83   -nan(ind)  -nan(ind)  -nan(ind)  -nan(ind)  -nan(ind)  -nan(ind)  -nan(ind)  -nan(ind)  -nan(ind)
  19000441                1.00   -nan(ind)  -nan(ind)  -nan(ind)  -nan(ind)  -nan(ind)  -nan(ind)  -nan(ind)  -nan(ind)  -nan(ind)
  19000442                1.00   -nan(ind)  -nan(ind)  -nan(ind)  -nan(ind)  -nan(ind)  -nan(ind)  -nan(ind)  -nan(ind)  -nan(ind)
  19000465                1.00   -nan(ind)  -nan(ind)  -nan(ind)  -nan(ind)  -nan(ind)  -nan(ind)  -nan(ind)  -nan(ind)  -nan(ind)
  19000503                1.00   -nan(ind)  -nan(ind)  -nan(ind)  -nan(ind)  -nan(ind)  -nan(ind)  -nan(ind)  -nan(ind)  -nan(ind)
  19000504                1.00   -nan(ind)  -nan(ind)  -nan(ind)  -nan(ind)  -nan(ind)  -nan(ind)  -nan(ind)  -nan(ind)  -nan(ind)
  19000505                1.00   -nan(ind)  -nan(ind)  -nan(ind)  -nan(ind)  -nan(ind)  -nan(ind)  -nan(ind)  -nan(ind)  -nan(ind)
  19000506                1.00   -nan(ind)  -nan(ind)  -nan(ind)  -nan(ind)  -nan(ind)  -nan(ind)  -nan(ind)  -nan(ind)  -nan(ind)
  19000507                1.00   -nan(ind)  -nan(ind)  -nan(ind)  -nan(ind)  -nan(ind)  -nan(ind)  -nan(ind)  -nan(ind)  -nan(ind)
  19000508                1.00   -nan(ind)  -nan(ind)  -nan(ind)  -nan(ind)  -nan(ind)  -nan(ind)  -nan(ind)  -nan(ind)  -nan(ind)
  19000509                1.00   -nan(ind)  -nan(ind)  -nan(ind)  -nan(ind)  -nan(ind)  -nan(ind)  -nan(ind)  -nan(ind)  -nan(ind)
  19000510                1.00   -nan(ind)  -nan(ind)  -nan(ind)  -nan(ind)  -nan(ind)  -nan(ind)  -nan(ind)  -nan(ind)  -nan(ind)
  19000511                1.00   -nan(ind)  -nan(ind)  -nan(ind)  -nan(ind)  -nan(ind)  -nan(ind)  -nan(ind)  -nan(ind)  -nan(ind)
  19000551                1.03   -nan(ind)  -nan(ind)  -nan(ind)  -nan(ind)  -nan(ind)  -nan(ind)  -nan(ind)  -nan(ind)  -nan(ind)
  19000585                1.00   -nan(ind)  -nan(ind)  -nan(ind)  -nan(ind)  -nan(ind)  -nan(ind)  -nan(ind)  -nan(ind)  -nan(ind)
  19000587                1.00   -nan(ind)  -nan(ind)  -nan(ind)  -nan(ind)  -nan(ind)  -nan(ind)  -nan(ind)  -nan(ind)  -nan(ind)
  19000588                1.00   -nan(ind)  -nan(ind)  -nan(ind)  -nan(ind)  -nan(ind)  -nan(ind)  -nan(ind)  -nan(ind)  -nan(ind)
  19000589                1.00   -nan(ind)  -nan(ind)  -nan(ind)  -nan(ind)  -nan(ind)  -nan(ind)  -nan(ind)  -nan(ind)  -nan(ind)
  19000606                1.00   -nan(ind)  -nan(ind)  -nan(ind)  -nan(ind)  -nan(ind)  -nan(ind)  -nan(ind)  -nan(ind)  -nan(ind)
  19000607                1.00   -nan(ind)  -nan(ind)  -nan(ind)  -nan(ind)  -nan(ind)  -nan(ind)  -nan(ind)  -nan(ind)  -nan(ind)
  19000608                1.00   -nan(ind)  -nan(ind)  -nan(ind)  -nan(ind)  -nan(ind)  -nan(ind)  -nan(ind)  -nan(ind)  -nan(ind)
  19000609                1.00   -nan(ind)  -nan(ind)  -nan(ind)  -nan(ind)  -nan(ind)  -nan(ind)  -nan(ind)  -nan(ind)  -nan(ind)
  19000610                1.00   -nan(ind)  -nan(ind)  -nan(ind)  -nan(ind)  -nan(ind)  -nan(ind)  -nan(ind)  -nan(ind)  -nan(ind)
  19000611                1.00   -nan(ind)  -nan(ind)  -nan(ind)  -nan(ind)  -nan(ind)  -nan(ind)  -nan(ind)  -nan(ind)  -nan(ind)
  19000612                1.00   -nan(ind)  -nan(ind)  -nan(ind)  -nan(ind)  -nan(ind)  -nan(ind)  -nan(ind)  -nan(ind)  -nan(ind)
  19000613                1.00   -nan(ind)  -nan(ind)  -nan(ind)  -nan(ind)  -nan(ind)  -nan(ind)  -nan(ind)  -nan(ind)  -nan(ind)
  19000615                1.00   -nan(ind)  -nan(ind)  -nan(ind)  -nan(ind)  -nan(ind)  -nan(ind)  -nan(ind)  -nan(ind)  -nan(ind)
  19000618                1.00   -nan(ind)  -nan(ind)  -nan(ind)  -nan(ind)  -nan(ind)  -nan(ind)  -nan(ind)  -nan(ind)  -nan(ind)
  19000619                1.00   -nan(ind)  -nan(ind)  -nan(ind)  -nan(ind)  -nan(ind)  -nan(ind)  -nan(ind)  -nan(ind)  -nan(ind)
  19000620                1.00   -nan(ind)  -nan(ind)  -nan(ind)  -nan(ind)  -nan(ind)  -nan(ind)  -nan(ind)  -nan(ind)  -nan(ind)
  19000621                1.00   -nan(ind)  -nan(ind)  -nan(ind)  -nan(ind)  -nan(ind)  -nan(ind)  -nan(ind)  -nan(ind)  -nan(ind)
  19000622                1.00   -nan(ind)  -nan(ind)  -nan(ind)  -nan(ind)  -nan(ind)  -nan(ind)  -nan(ind)  -nan(ind)  -nan(ind)
  19000666                1.00   -nan(ind)  -nan(ind)  -nan(ind)  -nan(ind)  -nan(ind)  -nan(ind)  -nan(ind)  -nan(ind)  -nan(ind)
  19000667                1.00   -nan(ind)  -nan(ind)  -nan(ind)  -nan(ind)  -nan(ind)  -nan(ind)  -nan(ind)  -nan(ind)  -nan(ind)
  19000668                1.00   -nan(ind)  -nan(ind)  -nan(ind)  -nan(ind)  -nan(ind)  -nan(ind)  -nan(ind)  -nan(ind)  -nan(ind)
  19000669                1.00   -nan(ind)  -nan(ind)  -nan(ind)  -nan(ind)  -nan(ind)  -nan(ind)  -nan(ind)  -nan(ind)  -nan(ind)
  19000670                1.00   -nan(ind)  -nan(ind)  -nan(ind)  -nan(ind)  -nan(ind)  -nan(ind)  -nan(ind)  -nan(ind)  -nan(ind)
  19000671                1.00   -nan(ind)  -nan(ind)  -nan(ind)  -nan(ind)  -nan(ind)  -nan(ind)  -nan(ind)  -nan(ind)  -nan(ind)
  19000672                1.00   -nan(ind)  -nan(ind)  -nan(ind)  -nan(ind)  -nan(ind)  -nan(ind)  -nan(ind)  -nan(ind)  -nan(ind)
  19000673                1.00   -nan(ind)  -nan(ind)  -nan(ind)  -nan(ind)  -nan(ind)  -nan(ind)  -nan(ind)  -nan(ind)  -nan(ind)
  19000674                1.00   -nan(ind)  -nan(ind)  -nan(ind)  -nan(ind)  -nan(ind)  -nan(ind)  -nan(ind)  -nan(ind)  -nan(ind)
  19000679                1.00   -nan(ind)  -nan(ind)  -nan(ind)  -nan(ind)  -nan(ind)  -nan(ind)  -nan(ind)  -nan(ind)  -nan(ind)
  19000684                1.00   -nan(ind)  -nan(ind)  -nan(ind)  -nan(ind)  -nan(ind)  -nan(ind)  -nan(ind)  -nan(ind)  -nan(ind)
  19000686                1.00   -nan(ind)  -nan(ind)  -nan(ind)  -nan(ind)  -nan(ind)  -nan(ind)  -nan(ind)  -nan(ind)  -nan(ind)
  19000687                1.00   -nan(ind)  -nan(ind)  -nan(ind)  -nan(ind)  -nan(ind)  -nan(ind)  -nan(ind)  -nan(ind)  -nan(ind)
  19000688                1.00   -nan(ind)  -nan(ind)  -nan(ind)  -nan(ind)  -nan(ind)  -nan(ind)  -nan(ind)  -nan(ind)  -nan(ind)
  19000689                1.00   -nan(ind)  -nan(ind)  -nan(ind)  -nan(ind)  -nan(ind)  -nan(ind)  -nan(ind)  -nan(ind)  -nan(ind)
  19000690                1.00   -nan(ind)  -nan(ind)  -nan(ind)  -nan(ind)  -nan(ind)  -nan(ind)  -nan(ind)  -nan(ind)  -nan(ind)
  19000691                1.00   -nan(ind)  -nan(ind)  -nan(ind)  -nan(ind)  -nan(ind)  -nan(ind)  -nan(ind)  -nan(ind)  -nan(ind)
  19000692                1.00   -nan(ind)  -nan(ind)  -nan(ind)  -nan(ind)  -nan(ind)  -nan(ind)  -nan(ind)  -nan(ind)  -nan(ind)
  19000693                1.00   -nan(ind)  -nan(ind)  -nan(ind)  -nan(ind)  -nan(ind)  -nan(ind)  -nan(ind)  -nan(ind)  -nan(ind)
  19000694                1.00   -nan(ind)  -nan(ind)  -nan(ind)  -nan(ind)  -nan(ind)  -nan(ind)  -nan(ind)  -nan(ind)  -nan(ind)
  19000695                1.00   -nan(ind)  -nan(ind)  -nan(ind)  -nan(ind)  -nan(ind)  -nan(ind)  -nan(ind)  -nan(ind)  -nan(ind)
  19000696                1.00   -nan(ind)  -nan(ind)  -nan(ind)  -nan(ind)  -nan(ind)  -nan(ind)  -nan(ind)  -nan(ind)  -nan(ind)
  19000823               26.64   -nan(ind)  -nan(ind)  -nan(ind)  -nan(ind)  -nan(ind)  -nan(ind)  -nan(ind)  -nan(ind)  -nan(ind)
  19001284                2.87   -nan(ind)  -nan(ind)  -nan(ind)  -nan(ind)  -nan(ind)  -nan(ind)  -nan(ind)  -nan(ind)  -nan(ind)
  19001285                1.00   -nan(ind)  -nan(ind)  -nan(ind)  -nan(ind)  -nan(ind)  -nan(ind)  -nan(ind)  -nan(ind)  -nan(ind)
  19001336                1.00   -nan(ind)  -nan(ind)  -nan(ind)  -nan(ind)  -nan(ind)  -nan(ind)  -nan(ind)  -nan(ind)  -nan(ind)
  19001337                1.00   -nan(ind)  -nan(ind)  -nan(ind)  -nan(ind)  -nan(ind)  -nan(ind)  -nan(ind)  -nan(ind)  -nan(ind)
  19001338                1.49   -nan(ind)  -nan(ind)  -nan(ind)  -nan(ind)  -nan(ind)  -nan(ind)  -nan(ind)  -nan(ind)  -nan(ind)
  19001339                1.00   -nan(ind)  -nan(ind)  -nan(ind)  -nan(ind)  -nan(ind)  -nan(ind)  -nan(ind)  -nan(ind)  -nan(ind)
  19001447                1.00   -nan(ind)  -nan(ind)  -nan(ind)  -nan(ind)  -nan(ind)  -nan(ind)  -nan(ind)  -nan(ind)  -nan(ind)
  19001448                1.90   -nan(ind)  -nan(ind)  -nan(ind)  -nan(ind)  -nan(ind)  -nan(ind)  -nan(ind)  -nan(ind)  -nan(ind)
  19001487                3.21   -nan(ind)  -nan(ind)  -nan(ind)  -nan(ind)  -nan(ind)  -nan(ind)  -nan(ind)  -nan(ind)  -nan(ind)
  19001488                2.51   -nan(ind)  -nan(ind)  -nan(ind)  -nan(ind)  -nan(ind)  -nan(ind)  -nan(ind)  -nan(ind)  -nan(ind)
  19001489                5.01   -nan(ind)  -nan(ind)  -nan(ind)  -nan(ind)  -nan(ind)  -nan(ind)  -nan(ind)  -nan(ind)  -nan(ind)
  19001490                8.21   -nan(ind)  -nan(ind)  -nan(ind)  -nan(ind)  -nan(ind)  -nan(ind)  -nan(ind)  -nan(ind)  -nan(ind)
  19001493                1.65   -nan(ind)  -nan(ind)  -nan(ind)  -nan(ind)  -nan(ind)  -nan(ind)  -nan(ind)  -nan(ind)  -nan(ind)
  19001494                5.66   -nan(ind)  -nan(ind)  -nan(ind)  -nan(ind)  -nan(ind)  -nan(ind)  -nan(ind)  -nan(ind)  -nan(ind)
  19001495                1.40   -nan(ind)  -nan(ind)  -nan(ind)  -nan(ind)  -nan(ind)  -nan(ind)  -nan(ind)  -nan(ind)  -nan(ind)
  19001496                1.00   -nan(ind)  -nan(ind)  -nan(ind)  -nan(ind)  -nan(ind)  -nan(ind)  -nan(ind)  -nan(ind)  -nan(ind)
  19001497                1.05   -nan(ind)  -nan(ind)  -nan(ind)  -nan(ind)  -nan(ind)  -nan(ind)  -nan(ind)  -nan(ind)  -nan(ind)
  19001827                1.00   -nan(ind)  -nan(ind)  -nan(ind)  -nan(ind)  -nan(ind)  -nan(ind)  -nan(ind)  -nan(ind)  -nan(ind)
  19001828                1.23   -nan(ind)  -nan(ind)  -nan(ind)  -nan(ind)  -nan(ind)  -nan(ind)  -nan(ind)  -nan(ind)  -nan(ind)
  19001829                1.77   -nan(ind)  -nan(ind)  -nan(ind)  -nan(ind)  -nan(ind)  -nan(ind)  -nan(ind)  -nan(ind)  -nan(ind)
  19001830                8.69   -nan(ind)  -nan(ind)  -nan(ind)  -nan(ind)  -nan(ind)  -nan(ind)  -nan(ind)  -nan(ind)  -nan(ind)
  19001833                1.57   -nan(ind)  -nan(ind)  -nan(ind)  -nan(ind)  -nan(ind)  -nan(ind)  -nan(ind)  -nan(ind)  -nan(ind)
  19001834               11.43   -nan(ind)  -nan(ind)  -nan(ind)  -nan(ind)  -nan(ind)  -nan(ind)  -nan(ind)  -nan(ind)  -nan(ind)
  DRUMMOND_INFLOW         1.79   -nan(ind)  -nan(ind)  -nan(ind)  -nan(ind)  -nan(ind)  -nan(ind)  -nan(ind)  -nan(ind)  -nan(ind)
  HIGH_LIFT_SPS_OVERFLOW    1.68   -nan(ind)  -nan(ind)  -nan(ind)  -nan(ind)  -nan(ind)  -nan(ind)  -nan(ind)  -nan(ind)  -nan(ind)
  NIAGARA_WWTP_OUTLET1    1.00   -nan(ind)  -nan(ind)  -nan(ind)  -nan(ind)  -nan(ind)  -nan(ind)  -nan(ind)  -nan(ind)  -nan(ind)
  NIAGARA_WWTP_OUTLET2    7.64   -nan(ind)  -nan(ind)  -nan(ind)  -nan(ind)  -nan(ind)  -nan(ind)  -nan(ind)  -nan(ind)  -nan(ind)
  NIAGARA_WWTP_OUTLET3    3.12   -nan(ind)  -nan(ind)  -nan(ind)  -nan(ind)  -nan(ind)  -nan(ind)  -nan(ind)  -nan(ind)  -nan(ind)
  NIAGARA_WWTP_OVERFLOW    3.60   -nan(ind)  -nan(ind)  -nan(ind)  -nan(ind)  -nan(ind)  -nan(ind)  -nan(ind)  -nan(ind)  -nan(ind)
  PELLS_CREEK_OVERFLOW    1.00   -nan(ind)  -nan(ind)  -nan(ind)  -nan(ind)  -nan(ind)  -nan(ind)  -nan(ind)  -nan(ind)  -nan(ind)
  
  
  *************************
  Conduit Surcharge Summary
  *************************
  
  No conduits were surcharged.
  
  
  ***************
  Pumping Summary
  ***************
  
  ---------------------------------------------------------------------------------------------------------
                                                  Min       Avg       Max     Total     Power    % Time Off
                        Percent   Number of      Flow      Flow      Flow    Volume     Usage    Pump Curve
  Pump                 Utilized   Start-Ups       LPS       LPS       LPS  10^6 ltr     Kw-hr    Low   High
  ---------------------------------------------------------------------------------------------------------
  14000026_P1          -nan(ind)           0      0.00      0.00      0.00     0.000      0.00    0.0    0.0
  14000030_P1          -nan(ind)           0      0.00      0.00      0.00     0.000      0.00    0.0    0.0
  14000073_P1          -nan(ind)           0      0.00      0.00      0.00     0.000      0.00    0.0    0.0
  14000101_P1          -nan(ind)           0      0.00      0.00      0.00     0.000      0.00    0.0    0.0
  14000109_P1          -nan(ind)           0      0.00      0.00      0.00     0.000      0.00    0.0    0.0
  14000131_P1          -nan(ind)           0      0.00      0.00      0.00     0.000      0.00    0.0    0.0
  14000137_P1          -nan(ind)           0      0.00      0.00      0.00     0.000      0.00    0.0    0.0
  14000163_1           -nan(ind)           0      0.00      0.00      0.00     0.000      0.00    0.0    0.0
  14000169_P1          -nan(ind)           0      0.00      0.00      0.00     0.000      0.00    0.0    0.0
  CENTRAL_HRT_INLET    -nan(ind)           0      0.00      0.00      0.00     0.000      0.00    0.0    0.0
  CENTRAL_HRT_TREATED_OVERFLOW -nan(ind)           0      0.00      0.00      0.00     0.000      0.00    0.0    0.0
  CENTRAL_HRT_UNDERFLOW -nan(ind)           0      0.00      0.00      0.00     0.000      0.00    0.0    0.0
  NIAGARA_WWTP_INFLOW  -nan(ind)           0      0.00      0.00      0.00     0.000      0.00    0.0    0.0
  

  Analysis begun on:  Sat Nov 30 08:10:07 2019
  Analysis ended on:  Sat Nov 30 08:10:07 2019
  Total elapsed time: < 1 sec