
  EPA STORM WATER MANAGEMENT MODEL - VERSION 5.1 (Build 5.1.013)
  --------------------------------------------------------------

  WARNING 09: time series interval greater than recording interval for Rain Gage RG1
  WARNING 04: minimum elevation drop used for Conduit 0030010124.1
  WARNING 04: minimum elevation drop used for Conduit 0030010137.1
  WARNING 04: minimum elevation drop used for Conduit 0030010138.1
  WARNING 04: minimum elevation drop used for Conduit 0030010139.1
  WARNING 04: minimum elevation drop used for Conduit 0030010139.2
  WARNING 04: minimum elevation drop used for Conduit 0030010140.1
  WARNING 04: minimum elevation drop used for Conduit 0030040002.1
  WARNING 04: minimum elevation drop used for Conduit 0030040004.1
  WARNING 04: minimum elevation drop used for Conduit 0030040007.1
  WARNING 04: minimum elevation drop used for Conduit 0030040011.1
  WARNING 04: minimum elevation drop used for Conduit 0030040012.1
  WARNING 04: minimum elevation drop used for Conduit 0030040013.1
  WARNING 04: minimum elevation drop used for Conduit 0030040021.1
  WARNING 04: minimum elevation drop used for Conduit 0030080002.1
  WARNING 04: minimum elevation drop used for Conduit 0030080003.1
  WARNING 04: minimum elevation drop used for Conduit 003008008A.1
  
  *********************************************************
  NOTE: The summary statistics displayed in this report are
  based on results found at every computational time step,  
  not just on results from each reporting time step.
  *********************************************************
  
  ****************
  Analysis Options
  ****************
  Flow Units ............... MGD
  Process Models:
    Rainfall/Runoff ........ YES
    RDII ................... NO
    Snowmelt ............... NO
    Groundwater ............ NO
    Flow Routing ........... YES
    Ponding Allowed ........ NO
    Water Quality .......... NO
  Infiltration Method ...... HORTON
  Flow Routing Method ...... DYNWAVE
  Surcharge Method ......... EXTRAN
  Starting Date ............ 10/01/2012 00:00:00
  Ending Date .............. 10/03/2012 00:00:00
  Antecedent Dry Days ...... 0.0
  Report Time Step ......... 00:05:00
  Wet Time Step ............ 00:05:00
  Dry Time Step ............ 00:05:00
  Routing Time Step ........ 5.00 sec
  Variable Time Step ....... YES
  Maximum Trials ........... 8
  Number of Threads ........ 1
  Head Tolerance ........... 0.005000 ft
  
  
  **************************        Volume         Depth
  Runoff Quantity Continuity     acre-feet        inches
  **************************     ---------       -------
  Total Precipitation ......         0.000         0.000
  Evaporation Loss .........         0.000         0.000
  Infiltration Loss ........         0.000         0.000
  Surface Runoff ...........         0.000         0.000
  Final Storage ............         0.000         0.000
  Continuity Error (%) .....         0.000
  
  
  **************************        Volume        Volume
  Flow Routing Continuity        acre-feet      10^6 gal
  **************************     ---------     ---------
  Dry Weather Inflow .......         0.000         0.000
  Wet Weather Inflow .......         0.000         0.000
  Groundwater Inflow .......         0.000         0.000
  RDII Inflow ..............         0.000         0.000
  External Inflow ..........         0.000         0.000
  External Outflow .........         0.000         0.000
  Flooding Loss ............         0.000         0.000
  Evaporation Loss .........         0.000         0.000
  Exfiltration Loss ........         0.000         0.000
  Initial Stored Volume ....         0.000         0.000
  Final Stored Volume ......         0.000         0.000
  Continuity Error (%) .....         0.000
  
  
  ***************************
  Time-Step Critical Elements
  ***************************
  None
  
  
  ********************************
  Highest Flow Instability Indexes
  ********************************
  All links are stable.
  
  
  ***************************
  Subcatchment Runoff Summary
  ***************************
  
  ------------------------------------------------------------------------------------------------------------------------------
                            Total      Total      Total      Total     Imperv       Perv      Total       Total     Peak  Runoff
                           Precip      Runon       Evap      Infil     Runoff     Runoff     Runoff      Runoff   Runoff   Coeff
  Subcatchment                 in         in         in         in         in         in         in    10^6 gal      MGD
  ------------------------------------------------------------------------------------------------------------------------------
  021                        0.00       0.00       0.00       0.00       0.00       0.00       0.00        0.00     0.00   0.000
  133                        0.00       0.00       0.00       0.00       0.00       0.00       0.00        0.00     0.00   0.000
  136                        0.00       0.00       0.00       0.00       0.00       0.00       0.00        0.00     0.00   0.000
  147                        0.00       0.00       0.00       0.00       0.00       0.00       0.00        0.00     0.00   0.000
  156                        0.00       0.00       0.00       0.00       0.00       0.00       0.00        0.00     0.00   0.000
  20                         0.00       0.00       0.00       0.00       0.00       0.00       0.00        0.00     0.00   0.000
  527547_1540515             0.00       0.00       0.00       0.00       0.00       0.00       0.00        0.00     0.00   0.000
  528325_1539903             0.00       0.00       0.00       0.00       0.00       0.00       0.00        0.00     0.00   0.000
  528508_1540864             0.00       0.00       0.00       0.00       0.00       0.00       0.00        0.00     0.00   0.000
  528546_1541732             0.00       0.00       0.00       0.00       0.00       0.00       0.00        0.00     0.00   0.000
  528607_1541176             0.00       0.00       0.00       0.00       0.00       0.00       0.00        0.00     0.00   0.000
  528887_1540536             0.00       0.00       0.00       0.00       0.00       0.00       0.00        0.00     0.00   0.000
  529552_1539694             0.00       0.00       0.00       0.00       0.00       0.00       0.00        0.00     0.00   0.000
  530327_1541311             0.00       0.00       0.00       0.00       0.00       0.00       0.00        0.00     0.00   0.000
  530380_1542863             0.00       0.00       0.00       0.00       0.00       0.00       0.00        0.00     0.00   0.000
  530383_1539961             0.00       0.00       0.00       0.00       0.00       0.00       0.00        0.00     0.00   0.000
  530429_1542367             0.00       0.00       0.00       0.00       0.00       0.00       0.00        0.00     0.00   0.000
  530431_1541874             0.00       0.00       0.00       0.00       0.00       0.00       0.00        0.00     0.00   0.000
  530442_1540727             0.00       0.00       0.00       0.00       0.00       0.00       0.00        0.00     0.00   0.000
  530959_1540331             0.00       0.00       0.00       0.00       0.00       0.00       0.00        0.00     0.00   0.000
  531533_1543853             0.00       0.00       0.00       0.00       0.00       0.00       0.00        0.00     0.00   0.000
  531832_1539865             0.00       0.00       0.00       0.00       0.00       0.00       0.00        0.00     0.00   0.000
  532306_1542240             0.00       0.00       0.00       0.00       0.00       0.00       0.00        0.00     0.00   0.000
  532575_1540995             0.00       0.00       0.00       0.00       0.00       0.00       0.00        0.00     0.00   0.000
  532876_1543680             0.00       0.00       0.00       0.00       0.00       0.00       0.00        0.00     0.00   0.000
  533021_1539758             0.00       0.00       0.00       0.00       0.00       0.00       0.00        0.00     0.00   0.000
  533823_1544198             0.00       0.00       0.00       0.00       0.00       0.00       0.00        0.00     0.00   0.000
  533864_1542362             0.00       0.00       0.00       0.00       0.00       0.00       0.00        0.00     0.00   0.000
  534017_1539283             0.00       0.00       0.00       0.00       0.00       0.00       0.00        0.00     0.00   0.000
  534658_1541040             0.00       0.00       0.00       0.00       0.00       0.00       0.00        0.00     0.00   0.000
  534680_1536145             0.00       0.00       0.00       0.00       0.00       0.00       0.00        0.00     0.00   0.000
  534987_1544379             0.00       0.00       0.00       0.00       0.00       0.00       0.00        0.00     0.00   0.000
  535063_1538852             0.00       0.00       0.00       0.00       0.00       0.00       0.00        0.00     0.00   0.000
  535286_1543788             0.00       0.00       0.00       0.00       0.00       0.00       0.00        0.00     0.00   0.000
  535373_1539947             0.00       0.00       0.00       0.00       0.00       0.00       0.00        0.00     0.00   0.000
  535772_1542274             0.00       0.00       0.00       0.00       0.00       0.00       0.00        0.00     0.00   0.000
  535881_1540912             0.00       0.00       0.00       0.00       0.00       0.00       0.00        0.00     0.00   0.000
  535923_1536214             0.00       0.00       0.00       0.00       0.00       0.00       0.00        0.00     0.00   0.000
  536141_1538888             0.00       0.00       0.00       0.00       0.00       0.00       0.00        0.00     0.00   0.000
  536197_1543939             0.00       0.00       0.00       0.00       0.00       0.00       0.00        0.00     0.00   0.000
  536389_1537467             0.00       0.00       0.00       0.00       0.00       0.00       0.00        0.00     0.00   0.000
  536476_1538186             0.00       0.00       0.00       0.00       0.00       0.00       0.00        0.00     0.00   0.000
  536815_1538253             0.00       0.00       0.00       0.00       0.00       0.00       0.00        0.00     0.00   0.000
  536839_1544278             0.00       0.00       0.00       0.00       0.00       0.00       0.00        0.00     0.00   0.000
  536855_1539803             0.00       0.00       0.00       0.00       0.00       0.00       0.00        0.00     0.00   0.000
  537074_1540906             0.00       0.00       0.00       0.00       0.00       0.00       0.00        0.00     0.00   0.000
  537115_1537569             0.00       0.00       0.00       0.00       0.00       0.00       0.00        0.00     0.00   0.000
  537132_1543800             0.00       0.00       0.00       0.00       0.00       0.00       0.00        0.00     0.00   0.000
  537286_1542756             0.00       0.00       0.00       0.00       0.00       0.00       0.00        0.00     0.00   0.000
  537363_1540188             0.00       0.00       0.00       0.00       0.00       0.00       0.00        0.00     0.00   0.000
  537397_1538375             0.00       0.00       0.00       0.00       0.00       0.00       0.00        0.00     0.00   0.000
  537432_1541633             0.00       0.00       0.00       0.00       0.00       0.00       0.00        0.00     0.00   0.000
  537459_1542123             0.00       0.00       0.00       0.00       0.00       0.00       0.00        0.00     0.00   0.000
  537513_1540752             0.00       0.00       0.00       0.00       0.00       0.00       0.00        0.00     0.00   0.000
  537640_1538374             0.00       0.00       0.00       0.00       0.00       0.00       0.00        0.00     0.00   0.000
  537789_1539960             0.00       0.00       0.00       0.00       0.00       0.00       0.00        0.00     0.00   0.000
  537936_1538498             0.00       0.00       0.00       0.00       0.00       0.00       0.00        0.00     0.00   0.000
  537979_1538732             0.00       0.00       0.00       0.00       0.00       0.00       0.00        0.00     0.00   0.000
  538082_1536401             0.00       0.00       0.00       0.00       0.00       0.00       0.00        0.00     0.00   0.000
  538203_1542472             0.00       0.00       0.00       0.00       0.00       0.00       0.00        0.00     0.00   0.000
  538207_1544351             0.00       0.00       0.00       0.00       0.00       0.00       0.00        0.00     0.00   0.000
  538207_1544351!            0.00       0.00       0.00       0.00       0.00       0.00       0.00        0.00     0.00   0.000
  538313_1537152             0.00       0.00       0.00       0.00       0.00       0.00       0.00        0.00     0.00   0.000
  538369_1543896             0.00       0.00       0.00       0.00       0.00       0.00       0.00        0.00     0.00   0.000
  538369_1543896!            0.00       0.00       0.00       0.00       0.00       0.00       0.00        0.00     0.00   0.000
  538396_1540482             0.00       0.00       0.00       0.00       0.00       0.00       0.00        0.00     0.00   0.000
  538501_1541238             0.00       0.00       0.00       0.00       0.00       0.00       0.00        0.00     0.00   0.000
  538754_1543116             0.00       0.00       0.00       0.00       0.00       0.00       0.00        0.00     0.00   0.000
  538754_1543116!            0.00       0.00       0.00       0.00       0.00       0.00       0.00        0.00     0.00   0.000
  539012_1539758             0.00       0.00       0.00       0.00       0.00       0.00       0.00        0.00     0.00   0.000
  539013_1538201             0.00       0.00       0.00       0.00       0.00       0.00       0.00        0.00     0.00   0.000
  539045_1539064             0.00       0.00       0.00       0.00       0.00       0.00       0.00        0.00     0.00   0.000
  539192_1540347             0.00       0.00       0.00       0.00       0.00       0.00       0.00        0.00     0.00   0.000
  539237_1540873             0.00       0.00       0.00       0.00       0.00       0.00       0.00        0.00     0.00   0.000
  539649_1543745             0.00       0.00       0.00       0.00       0.00       0.00       0.00        0.00     0.00   0.000
  539649_1543745!            0.00       0.00       0.00       0.00       0.00       0.00       0.00        0.00     0.00   0.000
  539822_1538885             0.00       0.00       0.00       0.00       0.00       0.00       0.00        0.00     0.00   0.000
  539890_1538535             0.00       0.00       0.00       0.00       0.00       0.00       0.00        0.00     0.00   0.000
  540010_1540929             0.00       0.00       0.00       0.00       0.00       0.00       0.00        0.00     0.00   0.000
  540071_1539420             0.00       0.00       0.00       0.00       0.00       0.00       0.00        0.00     0.00   0.000
  540095_1542818             0.00       0.00       0.00       0.00       0.00       0.00       0.00        0.00     0.00   0.000
  540186_1537346             0.00       0.00       0.00       0.00       0.00       0.00       0.00        0.00     0.00   0.000
  540319_1542520             0.00       0.00       0.00       0.00       0.00       0.00       0.00        0.00     0.00   0.000
  540344_1541709             0.00       0.00       0.00       0.00       0.00       0.00       0.00        0.00     0.00   0.000
  540882_1543865             0.00       0.00       0.00       0.00       0.00       0.00       0.00        0.00     0.00   0.000
  541043_1541720             0.00       0.00       0.00       0.00       0.00       0.00       0.00        0.00     0.00   0.000
  541130_1537553             0.00       0.00       0.00       0.00       0.00       0.00       0.00        0.00     0.00   0.000
  541281_1538245             0.00       0.00       0.00       0.00       0.00       0.00       0.00        0.00     0.00   0.000
  542173_1537302             0.00       0.00       0.00       0.00       0.00       0.00       0.00        0.00     0.00   0.000
  542173_1537302_1           0.00       0.00       0.00       0.00       0.00       0.00       0.00        0.00     0.00   0.000
  542233_1538978             0.00       0.00       0.00       0.00       0.00       0.00       0.00        0.00     0.00   0.000
  542309_1539733             0.00       0.00       0.00       0.00       0.00       0.00       0.00        0.00     0.00   0.000
  542404_1538375             0.00       0.00       0.00       0.00       0.00       0.00       0.00        0.00     0.00   0.000
  542484_1538705             0.00       0.00       0.00       0.00       0.00       0.00       0.00        0.00     0.00   0.000
  542570_1537721             0.00       0.00       0.00       0.00       0.00       0.00       0.00        0.00     0.00   0.000
  542609_1536340             0.00       0.00       0.00       0.00       0.00       0.00       0.00        0.00     0.00   0.000
  542628_1538994             0.00       0.00       0.00       0.00       0.00       0.00       0.00        0.00     0.00   0.000
  542781_1539725             0.00       0.00       0.00       0.00       0.00       0.00       0.00        0.00     0.00   0.000
  542819_1537388             0.00       0.00       0.00       0.00       0.00       0.00       0.00        0.00     0.00   0.000
  542862_1538123             0.00       0.00       0.00       0.00       0.00       0.00       0.00        0.00     0.00   0.000
  542926_1538494             0.00       0.00       0.00       0.00       0.00       0.00       0.00        0.00     0.00   0.000
  542947_1538907             0.00       0.00       0.00       0.00       0.00       0.00       0.00        0.00     0.00   0.000
  543237_1538784             0.00       0.00       0.00       0.00       0.00       0.00       0.00        0.00     0.00   0.000
  543247_1538514             0.00       0.00       0.00       0.00       0.00       0.00       0.00        0.00     0.00   0.000
  543249_1537818             0.00       0.00       0.00       0.00       0.00       0.00       0.00        0.00     0.00   0.000
  543250_1538188             0.00       0.00       0.00       0.00       0.00       0.00       0.00        0.00     0.00   0.000
  543265_1539134             0.00       0.00       0.00       0.00       0.00       0.00       0.00        0.00     0.00   0.000
  543434_1536393             0.00       0.00       0.00       0.00       0.00       0.00       0.00        0.00     0.00   0.000
  543517_1538559             0.00       0.00       0.00       0.00       0.00       0.00       0.00        0.00     0.00   0.000
  543524_1538359             0.00       0.00       0.00       0.00       0.00       0.00       0.00        0.00     0.00   0.000
  543532_1538901             0.00       0.00       0.00       0.00       0.00       0.00       0.00        0.00     0.00   0.000
  543550_1539242             0.00       0.00       0.00       0.00       0.00       0.00       0.00        0.00     0.00   0.000
  543665_1537783             0.00       0.00       0.00       0.00       0.00       0.00       0.00        0.00     0.00   0.000
  543778_1538267             0.00       0.00       0.00       0.00       0.00       0.00       0.00        0.00     0.00   0.000
  543779_1538521             0.00       0.00       0.00       0.00       0.00       0.00       0.00        0.00     0.00   0.000
  543810_1538854             0.00       0.00       0.00       0.00       0.00       0.00       0.00        0.00     0.00   0.000
  543878_1539218             0.00       0.00       0.00       0.00       0.00       0.00       0.00        0.00     0.00   0.000
  544037_1538543             0.00       0.00       0.00       0.00       0.00       0.00       0.00        0.00     0.00   0.000
  544039_1538096             0.00       0.00       0.00       0.00       0.00       0.00       0.00        0.00     0.00   0.000
  544040_1538318             0.00       0.00       0.00       0.00       0.00       0.00       0.00        0.00     0.00   0.000
  544045_1538786             0.00       0.00       0.00       0.00       0.00       0.00       0.00        0.00     0.00   0.000
  544243_1539226             0.00       0.00       0.00       0.00       0.00       0.00       0.00        0.00     0.00   0.000
  544245_1539050             0.00       0.00       0.00       0.00       0.00       0.00       0.00        0.00     0.00   0.000
  544282_1538804             0.00       0.00       0.00       0.00       0.00       0.00       0.00        0.00     0.00   0.000
  544288_1539347             0.00       0.00       0.00       0.00       0.00       0.00       0.00        0.00     0.00   0.000
  544298_1538556             0.00       0.00       0.00       0.00       0.00       0.00       0.00        0.00     0.00   0.000
  544299_1538329             0.00       0.00       0.00       0.00       0.00       0.00       0.00        0.00     0.00   0.000
  544310_1538070             0.00       0.00       0.00       0.00       0.00       0.00       0.00        0.00     0.00   0.000
  544640_1538956             0.00       0.00       0.00       0.00       0.00       0.00       0.00        0.00     0.00   0.000
  544657_1537431             0.00       0.00       0.00       0.00       0.00       0.00       0.00        0.00     0.00   0.000
  544707_1538032             0.00       0.00       0.00       0.00       0.00       0.00       0.00        0.00     0.00   0.000
  544887_1538306             0.00       0.00       0.00       0.00       0.00       0.00       0.00        0.00     0.00   0.000
  545222_1538668             0.00       0.00       0.00       0.00       0.00       0.00       0.00        0.00     0.00   0.000
  545418_1537124             0.00       0.00       0.00       0.00       0.00       0.00       0.00        0.00     0.00   0.000
  545527_1539137             0.00       0.00       0.00       0.00       0.00       0.00       0.00        0.00     0.00   0.000
  
  
  ******************
  Node Depth Summary
  ******************
  
  ---------------------------------------------------------------------------------
                                 Average  Maximum  Maximum  Time of Max    Reported
                                   Depth    Depth      HGL   Occurrence   Max Depth
  Node                 Type         Feet     Feet     Feet  days hr:min        Feet
  ---------------------------------------------------------------------------------
  0030010001           JUNCTION  -nan(ind)     0.00    70.65     0  00:00        0.00
  0030010002           JUNCTION  -nan(ind)     0.00    70.58     0  00:00        0.00
  0030010003           JUNCTION  -nan(ind)     0.00    70.91     0  00:00        0.00
  0030010004           JUNCTION  -nan(ind)     0.00    70.96     0  00:00        0.00
  0030010005           JUNCTION  -nan(ind)     0.00    70.93     0  00:00        0.00
  0030010006           JUNCTION  -nan(ind)     0.00    71.22     0  00:00        0.00
  0030010007           JUNCTION  -nan(ind)     0.00    71.44     0  00:00        0.00
  0030010008           JUNCTION  -nan(ind)     0.00    71.88     0  00:00        0.00
  0030010009           JUNCTION  -nan(ind)     0.00    72.19     0  00:00        0.00
  0030010010           JUNCTION  -nan(ind)     0.00    72.54     0  00:00        0.00
  0030010011           JUNCTION  -nan(ind)     0.00    72.95     0  00:00        0.00
  0030010012           JUNCTION  -nan(ind)     0.00    74.00     0  00:00        0.00
  0030010013           JUNCTION  -nan(ind)     0.00    74.98     0  00:00        0.00
  0030010014           JUNCTION  -nan(ind)     0.00    76.34     0  00:00        0.00
  0030010015           JUNCTION  -nan(ind)     0.00    77.68     0  00:00        0.00
  0030010016           JUNCTION  -nan(ind)     0.00    78.40     0  00:00        0.00
  0030010017           JUNCTION  -nan(ind)     0.00    78.98     0  00:00        0.00
  0030010018           JUNCTION  -nan(ind)     0.00    79.68     0  00:00        0.00
  0030010019           JUNCTION  -nan(ind)     0.00    80.38     0  00:00        0.00
  0030010020           JUNCTION  -nan(ind)     0.00    70.47     0  00:00        0.00
  0030010021           JUNCTION  -nan(ind)     0.00    70.41     0  00:00        0.00
  0030010022           JUNCTION  -nan(ind)     0.00    70.54     0  00:00        0.00
  0030010023           JUNCTION  -nan(ind)     0.00    70.48     0  00:00        0.00
  0030010024           JUNCTION  -nan(ind)     0.00    70.36     0  00:00        0.00
  0030010025           JUNCTION  -nan(ind)     0.00    70.65     0  00:00        0.00
  0030010026           JUNCTION  -nan(ind)     0.00    70.91     0  00:00        0.00
  0030010027           JUNCTION  -nan(ind)     0.00    70.86     0  00:00        0.00
  0030010037           JUNCTION  -nan(ind)     0.00    70.66     0  00:00        0.00
  0030010038           JUNCTION  -nan(ind)     0.00    71.74     0  00:00        0.00
  0030010039           JUNCTION  -nan(ind)     0.00    71.80     0  00:00        0.00
  0030010040           JUNCTION  -nan(ind)     0.00    71.54     0  00:00        0.00
  0030010041           JUNCTION  -nan(ind)     0.00    71.86     0  00:00        0.00
  0030010046           JUNCTION  -nan(ind)     0.00    71.91     0  00:00        0.00
  0030010047           JUNCTION  -nan(ind)     0.00    72.36     0  00:00        0.00
  0030010048           JUNCTION  -nan(ind)     0.00    72.46     0  00:00        0.00
  0030010049           JUNCTION  -nan(ind)     0.00    72.59     0  00:00        0.00
  0030010050           JUNCTION  -nan(ind)     0.00    72.80     0  00:00        0.00
  0030010051           JUNCTION  -nan(ind)     0.00    72.89     0  00:00        0.00
  0030010052           JUNCTION  -nan(ind)     0.00    73.06     0  00:00        0.00
  0030010053           JUNCTION  -nan(ind)     0.00    72.97     0  00:00        0.00
  0030010054           JUNCTION  -nan(ind)     0.00    73.24     0  00:00        0.00
  0030010055           JUNCTION  -nan(ind)     0.00    73.52     0  00:00        0.00
  0030010056           JUNCTION  -nan(ind)     0.00    70.68     0  00:00        0.00
  0030010057           JUNCTION  -nan(ind)     0.00    70.20     0  00:00        0.00
  0030010058           JUNCTION  -nan(ind)     0.00    70.83     0  00:00        0.00
  0030010061           JUNCTION  -nan(ind)     0.00    70.97     0  00:00        0.00
  0030010062           JUNCTION  -nan(ind)     0.00    71.09     0  00:00        0.00
  0030010063           JUNCTION  -nan(ind)     0.00    71.20     0  00:00        0.00
  0030010064           JUNCTION  -nan(ind)     0.00    71.30     0  00:00        0.00
  0030010067           JUNCTION  -nan(ind)     0.00    71.47     0  00:00        0.00
  0030010068           JUNCTION  -nan(ind)     0.00    71.53     0  00:00        0.00
  0030010080           JUNCTION  -nan(ind)     0.00    72.15     0  00:00        0.00
  0030010081           JUNCTION  -nan(ind)     0.00    72.39     0  00:00        0.00
  0030010083           JUNCTION  -nan(ind)     0.00    72.68     0  00:00        0.00
  0030010087           JUNCTION  -nan(ind)     0.00    74.34     0  00:00        0.00
  0030010088           JUNCTION  -nan(ind)     0.00    74.55     0  00:00        0.00
  0030010089           JUNCTION  -nan(ind)     0.00    74.94     0  00:00        0.00
  0030010096           JUNCTION  -nan(ind)     0.00    75.06     0  00:00        0.00
  0030010097           JUNCTION  -nan(ind)     0.00    76.18     0  00:00        0.00
  0030010099           JUNCTION  -nan(ind)     0.00    76.32     0  00:00        0.00
  0030010109           JUNCTION  -nan(ind)     0.00    76.54     0  00:00        0.00
  0030010116           JUNCTION  -nan(ind)     0.00    71.55     0  00:00        0.00
  0030010117           JUNCTION  -nan(ind)     0.00    71.66     0  00:00        0.00
  0030010118           JUNCTION  -nan(ind)     0.00    71.87     0  00:00        0.00
  0030010119           JUNCTION  -nan(ind)     0.00    72.08     0  00:00        0.00
  0030010120           JUNCTION  -nan(ind)     0.00    72.20     0  00:00        0.00
  0030010121           JUNCTION  -nan(ind)     0.00    72.25     0  00:00        0.00
  0030010122           JUNCTION  -nan(ind)     0.00    72.35     0  00:00        0.00
  0030010123           JUNCTION  -nan(ind)     0.00    72.43     0  00:00        0.00
  0030010124           JUNCTION  -nan(ind)     0.00    72.43     0  00:00        0.00
  0030010125           JUNCTION  -nan(ind)     0.00    72.50     0  00:00        0.00
  0030010126           JUNCTION  -nan(ind)     0.00    72.66     0  00:00        0.00
  0030010127           JUNCTION  -nan(ind)     0.00    73.47     0  00:00        0.00
  0030010128           JUNCTION  -nan(ind)     0.00    73.89     0  00:00        0.00
  0030010129           JUNCTION  -nan(ind)     0.00    73.81     0  00:00        0.00
  0030010130           JUNCTION  -nan(ind)     0.00    73.89     0  00:00        0.00
  0030010137           JUNCTION  -nan(ind)     0.00    73.89     0  00:00        0.00
  0030010138           JUNCTION  -nan(ind)     0.00    73.89     0  00:00        0.00
  0030010139           JUNCTION  -nan(ind)     0.00    73.89     0  00:00        0.00
  0030010140           JUNCTION  -nan(ind)     0.00    73.89     0  00:00        0.00
  0030010151           JUNCTION  -nan(ind)     0.00    84.26     0  00:00        0.00
  0030010152           JUNCTION  -nan(ind)     0.00    84.61     0  00:00        0.00
  0030010153           JUNCTION  -nan(ind)     0.00    84.99     0  00:00        0.00
  0030010164           JUNCTION  -nan(ind)     0.00    71.83     0  00:00        0.00
  0030010167           JUNCTION  -nan(ind)     0.00    70.92     0  00:00        0.00
  0030020001           JUNCTION  -nan(ind)     0.00    84.84     0  00:00        0.00
  0030020002           JUNCTION  -nan(ind)     0.00    85.10     0  00:00        0.00
  0030020003           JUNCTION  -nan(ind)     0.00    85.32     0  00:00        0.00
  0030020004           JUNCTION  -nan(ind)     0.00    85.45     0  00:00        0.00
  0030020005           JUNCTION  -nan(ind)     0.00    85.34     0  00:00        0.00
  0030020006           JUNCTION  -nan(ind)     0.00    85.51     0  00:00        0.00
  0030020007           JUNCTION  -nan(ind)     0.00    85.53     0  00:00        0.00
  0030020008           JUNCTION  -nan(ind)     0.00    85.75     0  00:00        0.00
  0030020009           JUNCTION  -nan(ind)     0.00    85.95     0  00:00        0.00
  0030020010           JUNCTION  -nan(ind)     0.00    85.10     0  00:00        0.00
  0030020020           JUNCTION  -nan(ind)     0.00    87.97     0  00:00        0.00
  0030020021           JUNCTION  -nan(ind)     0.00    88.89     0  00:00        0.00
  0030020024           JUNCTION  -nan(ind)     0.00    89.65     0  00:00        0.00
  0030020025           JUNCTION  -nan(ind)     0.00    90.08     0  00:00        0.00
  0030020028           JUNCTION  -nan(ind)     0.00    90.65     0  00:00        0.00
  0030020031           JUNCTION  -nan(ind)     0.00    91.40     0  00:00        0.00
  0030020048           JUNCTION  -nan(ind)     0.00    91.58     0  00:00        0.00
  0030020064           JUNCTION  -nan(ind)     0.00    92.28     0  00:00        0.00
  0030020096           JUNCTION  -nan(ind)     0.00    77.75     0  00:00        0.00
  0030020097           JUNCTION  -nan(ind)     0.00    81.96     0  00:00        0.00
  0030020098           JUNCTION  -nan(ind)     0.00    82.57     0  00:00        0.00
  0030020099           JUNCTION  -nan(ind)     0.00    83.00     0  00:00        0.00
  0030020100           JUNCTION  -nan(ind)     0.00    83.61     0  00:00        0.00
  0030020101           JUNCTION  -nan(ind)     0.00    84.11     0  00:00        0.00
  0030020102           JUNCTION  -nan(ind)     0.00    83.98     0  00:00        0.00
  0030020110           JUNCTION  -nan(ind)     0.00    76.90     0  00:00        0.00
  0030020121           JUNCTION  -nan(ind)     0.00    88.03     0  00:00        0.00
  0030020122           JUNCTION  -nan(ind)     0.00    88.09     0  00:00        0.00
  0030020154           JUNCTION  -nan(ind)     0.00    85.23     0  00:00        0.00
  0030030001           JUNCTION  -nan(ind)     0.00    73.94     0  00:00        0.00
  0030030002           JUNCTION  -nan(ind)     0.00    75.67     0  00:00        0.00
  0030030003           JUNCTION  -nan(ind)     0.00    81.13     0  00:00        0.00
  0030030006           JUNCTION  -nan(ind)     0.00    87.18     0  00:00        0.00
  0030030007           JUNCTION  -nan(ind)     0.00    91.14     0  00:00        0.00
  0030030008           JUNCTION  -nan(ind)     0.00    93.41     0  00:00        0.00
  0030030009           JUNCTION  -nan(ind)     0.00    94.22     0  00:00        0.00
  0030030010           JUNCTION  -nan(ind)     0.00    94.50     0  00:00        0.00
  0030030011           JUNCTION  -nan(ind)     0.00    95.11     0  00:00        0.00
  0030030013           JUNCTION  -nan(ind)     0.00    96.50     0  00:00        0.00
  0030030014           JUNCTION  -nan(ind)     0.00    97.04     0  00:00        0.00
  0030030015           JUNCTION  -nan(ind)     0.00    97.72     0  00:00        0.00
  0030030016           JUNCTION  -nan(ind)     0.00    98.39     0  00:00        0.00
  0030030079           JUNCTION  -nan(ind)     0.00    75.44     0  00:00        0.00
  0030030080           JUNCTION  -nan(ind)     0.00    75.12     0  00:00        0.00
  0030030081           JUNCTION  -nan(ind)     0.00    74.81     0  00:00        0.00
  0030040001           JUNCTION  -nan(ind)     0.00    74.35     0  00:00        0.00
  0030040002           JUNCTION  -nan(ind)     0.00    74.35     0  00:00        0.00
  0030040003           JUNCTION  -nan(ind)     0.00    75.16     0  00:00        0.00
  0030040004           JUNCTION  -nan(ind)     0.00    75.16     0  00:00        0.00
  0030040005           JUNCTION  -nan(ind)     0.00    75.10     0  00:00        0.00
  0030040006           JUNCTION  -nan(ind)     0.00    75.74     0  00:00        0.00
  0030040007           JUNCTION  -nan(ind)     0.00    75.74     0  00:00        0.00
  0030040008           JUNCTION  -nan(ind)     0.00    75.67     0  00:00        0.00
  0030040009           JUNCTION  -nan(ind)     0.00    76.17     0  00:00        0.00
  0030040010           JUNCTION  -nan(ind)     0.00    76.41     0  00:00        0.00
  0030040011           JUNCTION  -nan(ind)     0.00    76.41     0  00:00        0.00
  0030040012           JUNCTION  -nan(ind)     0.00    76.41     0  00:00        0.00
  0030040013           JUNCTION  -nan(ind)     0.00    76.41     0  00:00        0.00
  0030040014           JUNCTION  -nan(ind)     0.00    76.76     0  00:00        0.00
  0030040015           JUNCTION  -nan(ind)     0.00    76.81     0  00:00        0.00
  0030040016           JUNCTION  -nan(ind)     0.00    77.08     0  00:00        0.00
  0030040019           JUNCTION  -nan(ind)     0.00    77.42     0  00:00        0.00
  0030040020           JUNCTION  -nan(ind)     0.00    77.47     0  00:00        0.00
  0030040021           JUNCTION  -nan(ind)     0.00    77.47     0  00:00        0.00
  0030040023           JUNCTION  -nan(ind)     0.00    77.54     0  00:00        0.00
  0030040024           JUNCTION  -nan(ind)     0.00    77.74     0  00:00        0.00
  0030040025           JUNCTION  -nan(ind)     0.00    77.85     0  00:00        0.00
  0030040065           JUNCTION  -nan(ind)     0.00    78.44     0  00:00        0.00
  0030050001           JUNCTION  -nan(ind)     0.00    86.40     0  00:00        0.00
  0030050002           JUNCTION  -nan(ind)     0.00    87.39     0  00:00        0.00
  0030050003           JUNCTION  -nan(ind)     0.00    87.99     0  00:00        0.00
  0030050004           JUNCTION  -nan(ind)     0.00    88.06     0  00:00        0.00
  0030050005           JUNCTION  -nan(ind)     0.00    88.24     0  00:00        0.00
  0030050006           JUNCTION  -nan(ind)     0.00    88.09     0  00:00        0.00
  0030050062           JUNCTION  -nan(ind)     0.00    88.69     0  00:00        0.00
  0030050063           JUNCTION  -nan(ind)     0.00    88.90     0  00:00        0.00
  0030060001           JUNCTION  -nan(ind)     0.00    89.06     0  00:00        0.00
  0030060002           JUNCTION  -nan(ind)     0.00    89.09     0  00:00        0.00
  0030060003           JUNCTION  -nan(ind)     0.00    89.23     0  00:00        0.00
  0030060004           JUNCTION  -nan(ind)     0.00    89.93     0  00:00        0.00
  0030060005           JUNCTION  -nan(ind)     0.00    90.25     0  00:00        0.00
  0030060006           JUNCTION  -nan(ind)     0.00    90.55     0  00:00        0.00
  0030060007           JUNCTION  -nan(ind)     0.00    90.93     0  00:00        0.00
  0030060008           JUNCTION  -nan(ind)     0.00    91.39     0  00:00        0.00
  0030060009           JUNCTION  -nan(ind)     0.00    91.60     0  00:00        0.00
  0030060010           JUNCTION  -nan(ind)     0.00    92.23     0  00:00        0.00
  0030060011           JUNCTION  -nan(ind)     0.00    92.29     0  00:00        0.00
  003006009A           JUNCTION  -nan(ind)     0.00    91.69     0  00:00        0.00
  0030070001           JUNCTION  -nan(ind)     0.00    78.49     0  00:00        0.00
  0030070002           JUNCTION  -nan(ind)     0.00    78.70     0  00:00        0.00
  0030070003           JUNCTION  -nan(ind)     0.00    78.78     0  00:00        0.00
  0030070058           JUNCTION  -nan(ind)     0.00    79.45     0  00:00        0.00
  0030070059           JUNCTION  -nan(ind)     0.00    83.48     0  00:00        0.00
  0030070060           JUNCTION  -nan(ind)     0.00    84.08     0  00:00        0.00
  0030070061           JUNCTION  -nan(ind)     0.00    84.75     0  00:00        0.00
  0030070062           JUNCTION  -nan(ind)     0.00    85.51     0  00:00        0.00
  0030070063           JUNCTION  -nan(ind)     0.00    86.03     0  00:00        0.00
  0030070064           JUNCTION  -nan(ind)     0.00    86.74     0  00:00        0.00
  0030070065           JUNCTION  -nan(ind)     0.00    87.35     0  00:00        0.00
  0030080001           JUNCTION  -nan(ind)     0.00    74.73     0  00:00        0.00
  0030080002           JUNCTION  -nan(ind)     0.00    74.73     0  00:00        0.00
  0030080003           JUNCTION  -nan(ind)     0.00    74.73     0  00:00        0.00
  0030080004           JUNCTION  -nan(ind)     0.00    74.35     0  00:00        0.00
  0030080005           JUNCTION  -nan(ind)     0.00    74.60     0  00:00        0.00
  0030080006           JUNCTION  -nan(ind)     0.00    75.05     0  00:00        0.00
  0030080007           JUNCTION  -nan(ind)     0.00    76.41     0  00:00        0.00
  0030080008           JUNCTION  -nan(ind)     0.00    77.89     0  00:00        0.00
  0030080012           JUNCTION  -nan(ind)     0.00    78.65     0  00:00        0.00
  0030080013           JUNCTION  -nan(ind)     0.00    79.53     0  00:00        0.00
  0030080015           JUNCTION  -nan(ind)     0.00    80.85     0  00:00        0.00
  0030080016           JUNCTION  -nan(ind)     0.00    82.26     0  00:00        0.00
  0030080018           JUNCTION  -nan(ind)     0.00    83.72     0  00:00        0.00
  0030080020           JUNCTION  -nan(ind)     0.00    85.53     0  00:00        0.00
  0030080021           JUNCTION  -nan(ind)     0.00    85.66     0  00:00        0.00
  0030080023           JUNCTION  -nan(ind)     0.00    87.82     0  00:00        0.00
  0030080036           JUNCTION  -nan(ind)     0.00    75.21     0  00:00        0.00
  0030080037           JUNCTION  -nan(ind)     0.00    75.12     0  00:00        0.00
  0030080038           JUNCTION  -nan(ind)     0.00    75.39     0  00:00        0.00
  0030080039           JUNCTION  -nan(ind)     0.00    75.60     0  00:00        0.00
  0030080040           JUNCTION  -nan(ind)     0.00    75.65     0  00:00        0.00
  0030080041           JUNCTION  -nan(ind)     0.00    75.70     0  00:00        0.00
  0030080042           JUNCTION  -nan(ind)     0.00    80.81     0  00:00        0.00
  0030080043           JUNCTION  -nan(ind)     0.00    81.22     0  00:00        0.00
  0030080044           JUNCTION  -nan(ind)     0.00    81.84     0  00:00        0.00
  0030080045           JUNCTION  -nan(ind)     0.00    83.04     0  00:00        0.00
  0030080046           JUNCTION  -nan(ind)     0.00    84.39     0  00:00        0.00
  0030080053           JUNCTION  -nan(ind)     0.00    75.74     0  00:00        0.00
  0030080055           JUNCTION  -nan(ind)     0.00    75.98     0  00:00        0.00
  0030080056           JUNCTION  -nan(ind)     0.00    76.00     0  00:00        0.00
  0030080057           JUNCTION  -nan(ind)     0.00    76.02     0  00:00        0.00
  0030080058           JUNCTION  -nan(ind)     0.00    75.87     0  00:00        0.00
  0030080059           JUNCTION  -nan(ind)     0.00    75.99     0  00:00        0.00
  0030080060           JUNCTION  -nan(ind)     0.00    76.32     0  00:00        0.00
  0030080061           JUNCTION  -nan(ind)     0.00    76.26     0  00:00        0.00
  0030080062           JUNCTION  -nan(ind)     0.00    76.55     0  00:00        0.00
  0030080063           JUNCTION  -nan(ind)     0.00    76.87     0  00:00        0.00
  0030080064           JUNCTION  -nan(ind)     0.00    77.21     0  00:00        0.00
  0030080069           JUNCTION  -nan(ind)     0.00    77.07     0  00:00        0.00
  0030080070           JUNCTION  -nan(ind)     0.00    83.14     0  00:00        0.00
  0030080071           JUNCTION  -nan(ind)     0.00    86.27     0  00:00        0.00
  003008008A           JUNCTION  -nan(ind)     0.00    76.41     0  00:00        0.00
  0030100001           JUNCTION  -nan(ind)     0.00    91.07     0  00:00        0.00
  0030100002           JUNCTION  -nan(ind)     0.00    91.25     0  00:00        0.00
  0030100003           JUNCTION  -nan(ind)     0.00    91.30     0  00:00        0.00
  0030100006           JUNCTION  -nan(ind)     0.00    92.29     0  00:00        0.00
  0030100007           JUNCTION  -nan(ind)     0.00    92.41     0  00:00        0.00
  0030100013           JUNCTION  -nan(ind)     0.00    92.83     0  00:00        0.00
  0030100019           JUNCTION  -nan(ind)     0.00    93.26     0  00:00        0.00
  0030100020           JUNCTION  -nan(ind)     0.00    94.20     0  00:00        0.00
  0030100021           JUNCTION  -nan(ind)     0.00    95.37     0  00:00        0.00
  0030100022           JUNCTION  -nan(ind)     0.00    96.21     0  00:00        0.00
  0030100023           JUNCTION  -nan(ind)     0.00    97.31     0  00:00        0.00
  0030110001           JUNCTION  -nan(ind)     0.00    84.42     0  00:00        0.00
  0030110002           JUNCTION  -nan(ind)     0.00    85.97     0  00:00        0.00
  0030110003           JUNCTION  -nan(ind)     0.00    87.05     0  00:00        0.00
  0030110004           JUNCTION  -nan(ind)     0.00    88.47     0  00:00        0.00
  0030110005           JUNCTION  -nan(ind)     0.00    89.48     0  00:00        0.00
  0030110006           JUNCTION  -nan(ind)     0.00    89.75     0  00:00        0.00
  0030110007           JUNCTION  -nan(ind)     0.00    91.02     0  00:00        0.00
  0030110008           JUNCTION  -nan(ind)     0.00    92.08     0  00:00        0.00
  0030110009           JUNCTION  -nan(ind)     0.00    92.30     0  00:00        0.00
  0030110010           JUNCTION  -nan(ind)     0.00    93.31     0  00:00        0.00
  0030110011           JUNCTION  -nan(ind)     0.00    93.74     0  00:00        0.00
  0030110012           JUNCTION  -nan(ind)     0.00    93.95     0  00:00        0.00
  0030110013           JUNCTION  -nan(ind)     0.00    94.65     0  00:00        0.00
  0030110014           JUNCTION  -nan(ind)     0.00    95.39     0  00:00        0.00
  0030110015           JUNCTION  -nan(ind)     0.00    96.42     0  00:00        0.00
  0030110016           JUNCTION  -nan(ind)     0.00    96.80     0  00:00        0.00
  0030110017           JUNCTION  -nan(ind)     0.00    97.22     0  00:00        0.00
  0030110018           JUNCTION  -nan(ind)     0.00    97.87     0  00:00        0.00
  0030110019           JUNCTION  -nan(ind)     0.00    98.34     0  00:00        0.00
  0030110020           JUNCTION  -nan(ind)     0.00    99.20     0  00:00        0.00
  0030110021           JUNCTION  -nan(ind)     0.00    99.35     0  00:00        0.00
  0030110022           JUNCTION  -nan(ind)     0.00    99.48     0  00:00        0.00
  0030110049           JUNCTION  -nan(ind)     0.00    96.40     0  00:00        0.00
  0030110050           JUNCTION  -nan(ind)     0.00   101.73     0  00:00        0.00
  0030110051           JUNCTION  -nan(ind)     0.00   102.81     0  00:00        0.00
  0030110052           JUNCTION  -nan(ind)     0.00    98.84     0  00:00        0.00
  0030110053           JUNCTION  -nan(ind)     0.00    99.73     0  00:00        0.00
  0030110054           JUNCTION  -nan(ind)     0.00   101.16     0  00:00        0.00
  0030110055           JUNCTION  -nan(ind)     0.00    98.16     0  00:00        0.00
  0030110056           JUNCTION  -nan(ind)     0.00    99.64     0  00:00        0.00
  0030110057           JUNCTION  -nan(ind)     0.00    99.17     0  00:00        0.00
  0030110058           JUNCTION  -nan(ind)     0.00   100.25     0  00:00        0.00
  0030110059           JUNCTION  -nan(ind)     0.00   101.62     0  00:00        0.00
  003011014A           JUNCTION  -nan(ind)     0.00    96.00     0  00:00        0.00
  0030120001           JUNCTION  -nan(ind)     0.00    99.83     0  00:00        0.00
  0030120002           JUNCTION  -nan(ind)     0.00   100.30     0  00:00        0.00
  0030120003           JUNCTION  -nan(ind)     0.00   101.38     0  00:00        0.00
  0030120004           JUNCTION  -nan(ind)     0.00   102.48     0  00:00        0.00
  0030120005           JUNCTION  -nan(ind)     0.00   103.03     0  00:00        0.00
  0030120006           JUNCTION  -nan(ind)     0.00   103.30     0  00:00        0.00
  0030120007           JUNCTION  -nan(ind)     0.00   103.94     0  00:00        0.00
  0030120008           JUNCTION  -nan(ind)     0.00   103.93     0  00:00        0.00
  0030120009           JUNCTION  -nan(ind)     0.00   104.67     0  00:00        0.00
  0030120010           JUNCTION  -nan(ind)     0.00   104.54     0  00:00        0.00
  0030120015           JUNCTION  -nan(ind)     0.00   100.55     0  00:00        0.00
  0030120016           JUNCTION  -nan(ind)     0.00   100.89     0  00:00        0.00
  0030120017           JUNCTION  -nan(ind)     0.00   101.71     0  00:00        0.00
  0030120018           JUNCTION  -nan(ind)     0.00   101.76     0  00:00        0.00
  0030120019           JUNCTION  -nan(ind)     0.00   101.97     0  00:00        0.00
  0030120020           JUNCTION  -nan(ind)     0.00   103.00     0  00:00        0.00
  0030120021           JUNCTION  -nan(ind)     0.00   104.58     0  00:00        0.00
  0030120022           JUNCTION  -nan(ind)     0.00   106.04     0  00:00        0.00
  0030120023           JUNCTION  -nan(ind)     0.00   101.38     0  00:00        0.00
  0030120024           JUNCTION  -nan(ind)     0.00   101.34     0  00:00        0.00
  0030120025           JUNCTION  -nan(ind)     0.00   104.30     0  00:00        0.00
  0030120026           JUNCTION  -nan(ind)     0.00   101.37     0  00:00        0.00
  0030120028           JUNCTION  -nan(ind)     0.00   102.53     0  00:00        0.00
  0030120029           JUNCTION  -nan(ind)     0.00   103.27     0  00:00        0.00
  0030120030           JUNCTION  -nan(ind)     0.00   104.05     0  00:00        0.00
  0030120031           JUNCTION  -nan(ind)     0.00   102.79     0  00:00        0.00
  0030120032           JUNCTION  -nan(ind)     0.00   103.70     0  00:00        0.00
  0030120033           JUNCTION  -nan(ind)     0.00   104.77     0  00:00        0.00
  0030120034           JUNCTION  -nan(ind)     0.00   102.93     0  00:00        0.00
  0030120035           JUNCTION  -nan(ind)     0.00   103.43     0  00:00        0.00
  0030120036           JUNCTION  -nan(ind)     0.00   104.04     0  00:00        0.00
  0030120037           JUNCTION  -nan(ind)     0.00   104.12     0  00:00        0.00
  0030120038           JUNCTION  -nan(ind)     0.00   104.65     0  00:00        0.00
  0030120039           JUNCTION  -nan(ind)     0.00   106.05     0  00:00        0.00
  0030120042           JUNCTION  -nan(ind)     0.00   105.75     0  00:00        0.00
  0030120048           JUNCTION  -nan(ind)     0.00   106.33     0  00:00        0.00
  0030120049           JUNCTION  -nan(ind)     0.00   106.74     0  00:00        0.00
  0030120050           JUNCTION  -nan(ind)     0.00   106.84     0  00:00        0.00
  0030120051           JUNCTION  -nan(ind)     0.00   107.47     0  00:00        0.00
  0030120052           JUNCTION  -nan(ind)     0.00   108.43     0  00:00        0.00
  0030130001           JUNCTION  -nan(ind)     0.00    96.85     0  00:00        0.00
  0030130002           JUNCTION  -nan(ind)     0.00    97.35     0  00:00        0.00
  0030130003           JUNCTION  -nan(ind)     0.00    97.87     0  00:00        0.00
  0030130004           JUNCTION  -nan(ind)     0.00    97.99     0  00:00        0.00
  0030130005           JUNCTION  -nan(ind)     0.00    98.46     0  00:00        0.00
  0030130006           JUNCTION  -nan(ind)     0.00    98.94     0  00:00        0.00
  0030130043           JUNCTION  -nan(ind)     0.00    99.67     0  00:00        0.00
  0030140001           JUNCTION  -nan(ind)     0.00    72.32     0  00:00        0.00
  0030140002           JUNCTION  -nan(ind)     0.00    72.84     0  00:00        0.00
  0030140003           JUNCTION  -nan(ind)     0.00    72.46     0  00:00        0.00
  0030140004           JUNCTION  -nan(ind)     0.00    78.38     0  00:00        0.00
  0030140005           JUNCTION  -nan(ind)     0.00    78.79     0  00:00        0.00
  0030140006           JUNCTION  -nan(ind)     0.00    79.46     0  00:00        0.00
  0030140007           JUNCTION  -nan(ind)     0.00    80.05     0  00:00        0.00
  0030140008           JUNCTION  -nan(ind)     0.00    80.22     0  00:00        0.00
  0030140009           JUNCTION  -nan(ind)     0.00    81.42     0  00:00        0.00
  0030140010           JUNCTION  -nan(ind)     0.00    82.84     0  00:00        0.00
  0030150035           JUNCTION  -nan(ind)     0.00    90.17     0  00:00        0.00
  003PRV0056           JUNCTION  -nan(ind)     0.00    71.70     0  00:00        0.00
  003PRV0057           JUNCTION  -nan(ind)     0.00    71.88     0  00:00        0.00
  003PRV0058           JUNCTION  -nan(ind)     0.00    72.06     0  00:00        0.00
  003PRV0059           JUNCTION  -nan(ind)     0.00    73.40     0  00:00        0.00
  003PRV0060           JUNCTION  -nan(ind)     0.00    73.56     0  00:00        0.00
  003PRV0061           JUNCTION  -nan(ind)     0.00    73.52     0  00:00        0.00
  003PRV0062           JUNCTION  -nan(ind)     0.00    73.80     0  00:00        0.00
  003PRV0063           JUNCTION  -nan(ind)     0.00    73.94     0  00:00        0.00
  003PRV0064           JUNCTION  -nan(ind)     0.00    74.32     0  00:00        0.00
  003PRV0066           JUNCTION  -nan(ind)     0.00    74.39     0  00:00        0.00
  003PRV0067           JUNCTION  -nan(ind)     0.00    75.07     0  00:00        0.00
  003PRV0069           JUNCTION  -nan(ind)     0.00    75.51     0  00:00        0.00
  003PRV0070           JUNCTION  -nan(ind)     0.00    78.85     0  00:00        0.00
  003PRV0071           JUNCTION  -nan(ind)     0.00    79.12     0  00:00        0.00
  003PRV0072           JUNCTION  -nan(ind)     0.00    79.17     0  00:00        0.00
  003PRV0073           JUNCTION  -nan(ind)     0.00    82.83     0  00:00        0.00
  0150010002           JUNCTION  -nan(ind)     0.00    68.11     0  00:00        0.00
  0150010011           JUNCTION  -nan(ind)     0.00    68.68     0  00:00        0.00
  0150010012           JUNCTION  -nan(ind)     0.00    68.77     0  00:00        0.00
  0150010036           JUNCTION  -nan(ind)     0.00    69.69     0  00:00        0.00
  0150010037           JUNCTION  -nan(ind)     0.00    69.85     0  00:00        0.00
  0150010038           JUNCTION  -nan(ind)     0.00    70.10     0  00:00        0.00
  0150010039           JUNCTION  -nan(ind)     0.00    70.30     0  00:00        0.00
  0150010040           JUNCTION  -nan(ind)     0.00    70.40     0  00:00        0.00
  0150010041           JUNCTION  -nan(ind)     0.00    70.84     0  00:00        0.00
  0150010044           JUNCTION  -nan(ind)     0.00    71.01     0  00:00        0.00
  0150010045           JUNCTION  -nan(ind)     0.00    71.40     0  00:00        0.00
  0150010048           JUNCTION  -nan(ind)     0.00    71.70     0  00:00        0.00
  0150010049           JUNCTION  -nan(ind)     0.00    72.06     0  00:00        0.00
  0150010054           JUNCTION  -nan(ind)     0.00    72.74     0  00:00        0.00
  0150010057           JUNCTION  -nan(ind)     0.00    73.45     0  00:00        0.00
  0150010063           JUNCTION  -nan(ind)     0.00    74.10     0  00:00        0.00
  0500010001           JUNCTION  -nan(ind)     0.00    87.48     0  00:00        0.00
  0500010002           JUNCTION  -nan(ind)     0.00    88.12     0  00:00        0.00
  0500010003           JUNCTION  -nan(ind)     0.00    88.23     0  00:00        0.00
  0500010006           JUNCTION  -nan(ind)     0.00    88.52     0  00:00        0.00
  0500010011           JUNCTION  -nan(ind)     0.00    88.62     0  00:00        0.00
  0500010014           JUNCTION  -nan(ind)     0.00    88.94     0  00:00        0.00
  0500010020           JUNCTION  -nan(ind)     0.00    89.66     0  00:00        0.00
  0500010057           JUNCTION  -nan(ind)     0.00    90.16     0  00:00        0.00
  0500010058           JUNCTION  -nan(ind)     0.00    90.30     0  00:00        0.00
  0500010064           JUNCTION  -nan(ind)     0.00    91.61     0  00:00        0.00
  0500010065           JUNCTION  -nan(ind)     0.00    92.33     0  00:00        0.00
  0500010066           JUNCTION  -nan(ind)     0.00    92.71     0  00:00        0.00
  0500010067           JUNCTION  -nan(ind)     0.00    92.23     0  00:00        0.00
  0500010068           JUNCTION  -nan(ind)     0.00    93.83     0  00:00        0.00
  0500010069           JUNCTION  -nan(ind)     0.00    94.48     0  00:00        0.00
  0500010074           JUNCTION  -nan(ind)     0.00    90.79     0  00:00        0.00
  0500010087           JUNCTION  -nan(ind)     0.00    91.15     0  00:00        0.00
  0500010102           JUNCTION  -nan(ind)     0.00    91.54     0  00:00        0.00
  0500010103           JUNCTION  -nan(ind)     0.00    91.79     0  00:00        0.00
  0500010126           JUNCTION  -nan(ind)     0.00    92.61     0  00:00        0.00
  0500010130           JUNCTION  -nan(ind)     0.00    92.82     0  00:00        0.00
  0500010131           JUNCTION  -nan(ind)     0.00    93.29     0  00:00        0.00
  0500010135           JUNCTION  -nan(ind)     0.00    93.53     0  00:00        0.00
  0500010136           JUNCTION  -nan(ind)     0.00    93.75     0  00:00        0.00
  0500010137           JUNCTION  -nan(ind)     0.00    94.19     0  00:00        0.00
  0500010138           JUNCTION  -nan(ind)     0.00    94.76     0  00:00        0.00
  XXXX000018           JUNCTION  -nan(ind)     0.00    71.82     0  00:00        0.00
  0150010073           OUTFALL   -nan(ind)     0.00    68.00     0  00:00        0.00
  LS003                OUTFALL   -nan(ind)     0.00    61.80     0  00:00        0.00
  LS003a               OUTFALL   -nan(ind)     0.00    61.80     0  00:00        0.00
  
  
  *******************
  Node Inflow Summary
  *******************
  
  -------------------------------------------------------------------------------------------------
                                  Maximum  Maximum                  Lateral       Total        Flow
                                  Lateral    Total  Time of Max      Inflow      Inflow     Balance
                                   Inflow   Inflow   Occurrence      Volume      Volume       Error
  Node                 Type           MGD      MGD  days hr:min    10^6 gal    10^6 gal     Percent
  -------------------------------------------------------------------------------------------------
  0030010001           JUNCTION     0.000    0.000     0  00:00           0           0       0.000 gal
  0030010002           JUNCTION     0.000    0.000     0  00:00           0           0       0.000 gal
  0030010003           JUNCTION     0.000    0.000     0  00:00           0           0       0.000 gal
  0030010004           JUNCTION     0.000    0.000     0  00:00           0           0       0.000 gal
  0030010005           JUNCTION     0.000    0.000     0  00:00           0           0       0.000 gal
  0030010006           JUNCTION     0.000    0.000     0  00:00           0           0       0.000 gal
  0030010007           JUNCTION     0.000    0.000     0  00:00           0           0       0.000 gal
  0030010008           JUNCTION     0.000    0.000     0  00:00           0           0       0.000 gal
  0030010009           JUNCTION     0.000    0.000     0  00:00           0           0       0.000 gal
  0030010010           JUNCTION     0.000    0.000     0  00:00           0           0       0.000 gal
  0030010011           JUNCTION     0.000    0.000     0  00:00           0           0       0.000 gal
  0030010012           JUNCTION     0.000    0.000     0  00:00           0           0       0.000 gal
  0030010013           JUNCTION     0.000    0.000     0  00:00           0           0       0.000 gal
  0030010014           JUNCTION     0.000    0.000     0  00:00           0           0       0.000 gal
  0030010015           JUNCTION     0.000    0.000     0  00:00           0           0       0.000 gal
  0030010016           JUNCTION     0.000    0.000     0  00:00           0           0       0.000 gal
  0030010017           JUNCTION     0.000    0.000     0  00:00           0           0       0.000 gal
  0030010018           JUNCTION     0.000    0.000     0  00:00           0           0       0.000 gal
  0030010019           JUNCTION     0.000    0.000     0  00:00           0           0       0.000 gal
  0030010020           JUNCTION     0.000    0.000     0  00:00           0           0       0.000 gal
  0030010021           JUNCTION     0.000    0.000     0  00:00           0           0       0.000 gal
  0030010022           JUNCTION     0.000    0.000     0  00:00           0           0       0.000 gal
  0030010023           JUNCTION     0.000    0.000     0  00:00           0           0       0.000 gal
  0030010024           JUNCTION     0.000    0.000     0  00:00           0           0       0.000 gal
  0030010025           JUNCTION     0.000    0.000     0  00:00           0           0       0.000 gal
  0030010026           JUNCTION     0.000    0.000     0  00:00           0           0       0.000 gal
  0030010027           JUNCTION     0.000    0.000     0  00:00           0           0       0.000 gal
  0030010037           JUNCTION     0.000    0.000     0  00:00           0           0       0.000 gal
  0030010038           JUNCTION     0.000    0.000     0  00:00           0           0       0.000 gal
  0030010039           JUNCTION     0.000    0.000     0  00:00           0           0       0.000 gal
  0030010040           JUNCTION     0.000    0.000     0  00:00           0           0       0.000 gal
  0030010041           JUNCTION     0.000    0.000     0  00:00           0           0       0.000 gal
  0030010046           JUNCTION     0.000    0.000     0  00:00           0           0       0.000 gal
  0030010047           JUNCTION     0.000    0.000     0  00:00           0           0       0.000 gal
  0030010048           JUNCTION     0.000    0.000     0  00:00           0           0       0.000 gal
  0030010049           JUNCTION     0.000    0.000     0  00:00           0           0       0.000 gal
  0030010050           JUNCTION     0.000    0.000     0  00:00           0           0       0.000 gal
  0030010051           JUNCTION     0.000    0.000     0  00:00           0           0       0.000 gal
  0030010052           JUNCTION     0.000    0.000     0  00:00           0           0       0.000 gal
  0030010053           JUNCTION     0.000    0.000     0  00:00           0           0       0.000 gal
  0030010054           JUNCTION     0.000    0.000     0  00:00           0           0       0.000 gal
  0030010055           JUNCTION     0.000    0.000     0  00:00           0           0       0.000 gal
  0030010056           JUNCTION     0.000    0.000     0  00:00           0           0       0.000 gal
  0030010057           JUNCTION     0.000    0.000     0  00:00           0           0       0.000 gal
  0030010058           JUNCTION     0.000    0.000     0  00:00           0           0       0.000 gal
  0030010061           JUNCTION     0.000    0.000     0  00:00           0           0       0.000 gal
  0030010062           JUNCTION     0.000    0.000     0  00:00           0           0       0.000 gal
  0030010063           JUNCTION     0.000    0.000     0  00:00           0           0       0.000 gal
  0030010064           JUNCTION     0.000    0.000     0  00:00           0           0       0.000 gal
  0030010067           JUNCTION     0.000    0.000     0  00:00           0           0       0.000 gal
  0030010068           JUNCTION     0.000    0.000     0  00:00           0           0       0.000 gal
  0030010080           JUNCTION     0.000    0.000     0  00:00           0           0       0.000 gal
  0030010081           JUNCTION     0.000    0.000     0  00:00           0           0       0.000 gal
  0030010083           JUNCTION     0.000    0.000     0  00:00           0           0       0.000 gal
  0030010087           JUNCTION     0.000    0.000     0  00:00           0           0       0.000 gal
  0030010088           JUNCTION     0.000    0.000     0  00:00           0           0       0.000 gal
  0030010089           JUNCTION     0.000    0.000     0  00:00           0           0       0.000 gal
  0030010096           JUNCTION     0.000    0.000     0  00:00           0           0       0.000 gal
  0030010097           JUNCTION     0.000    0.000     0  00:00           0           0       0.000 gal
  0030010099           JUNCTION     0.000    0.000     0  00:00           0           0       0.000 gal
  0030010109           JUNCTION     0.000    0.000     0  00:00           0           0       0.000 gal
  0030010116           JUNCTION     0.000    0.000     0  00:00           0           0       0.000 gal
  0030010117           JUNCTION     0.000    0.000     0  00:00           0           0       0.000 gal
  0030010118           JUNCTION     0.000    0.000     0  00:00           0           0       0.000 gal
  0030010119           JUNCTION     0.000    0.000     0  00:00           0           0       0.000 gal
  0030010120           JUNCTION     0.000    0.000     0  00:00           0           0       0.000 gal
  0030010121           JUNCTION     0.000    0.000     0  00:00           0           0       0.000 gal
  0030010122           JUNCTION     0.000    0.000     0  00:00           0           0       0.000 gal
  0030010123           JUNCTION     0.000    0.000     0  00:00           0           0       0.000 gal
  0030010124           JUNCTION     0.000    0.000     0  00:00           0           0       0.000 gal
  0030010125           JUNCTION     0.000    0.000     0  00:00           0           0       0.000 gal
  0030010126           JUNCTION     0.000    0.000     0  00:00           0           0       0.000 gal
  0030010127           JUNCTION     0.000    0.000     0  00:00           0           0       0.000 gal
  0030010128           JUNCTION     0.000    0.000     0  00:00           0           0       0.000 gal
  0030010129           JUNCTION     0.000    0.000     0  00:00           0           0       0.000 gal
  0030010130           JUNCTION     0.000    0.000     0  00:00           0           0       0.000 gal
  0030010137           JUNCTION     0.000    0.000     0  00:00           0           0       0.000 gal
  0030010138           JUNCTION     0.000    0.000     0  00:00           0           0       0.000 gal
  0030010139           JUNCTION     0.000    0.000     0  00:00           0           0       0.000 gal
  0030010140           JUNCTION     0.000    0.000     0  00:00           0           0       0.000 gal
  0030010151           JUNCTION     0.000    0.000     0  00:00           0           0       0.000 gal
  0030010152           JUNCTION     0.000    0.000     0  00:00           0           0       0.000 gal
  0030010153           JUNCTION     0.000    0.000     0  00:00           0           0       0.000 gal
  0030010164           JUNCTION     0.000    0.000     0  00:00           0           0       0.000 gal
  0030010167           JUNCTION     0.000    0.000     0  00:00           0           0       0.000 gal
  0030020001           JUNCTION     0.000    0.000     0  00:00           0           0       0.000 gal
  0030020002           JUNCTION     0.000    0.000     0  00:00           0           0       0.000 gal
  0030020003           JUNCTION     0.000    0.000     0  00:00           0           0       0.000 gal
  0030020004           JUNCTION     0.000    0.000     0  00:00           0           0       0.000 gal
  0030020005           JUNCTION     0.000    0.000     0  00:00           0           0       0.000 gal
  0030020006           JUNCTION     0.000    0.000     0  00:00           0           0       0.000 gal
  0030020007           JUNCTION     0.000    0.000     0  00:00           0           0       0.000 gal
  0030020008           JUNCTION     0.000    0.000     0  00:00           0           0       0.000 gal
  0030020009           JUNCTION     0.000    0.000     0  00:00           0           0       0.000 gal
  0030020010           JUNCTION     0.000    0.000     0  00:00           0           0       0.000 gal
  0030020020           JUNCTION     0.000    0.000     0  00:00           0           0       0.000 gal
  0030020021           JUNCTION     0.000    0.000     0  00:00           0           0       0.000 gal
  0030020024           JUNCTION     0.000    0.000     0  00:00           0           0       0.000 gal
  0030020025           JUNCTION     0.000    0.000     0  00:00           0           0       0.000 gal
  0030020028           JUNCTION     0.000    0.000     0  00:00           0           0       0.000 gal
  0030020031           JUNCTION     0.000    0.000     0  00:00           0           0       0.000 gal
  0030020048           JUNCTION     0.000    0.000     0  00:00           0           0       0.000 gal
  0030020064           JUNCTION     0.000    0.000     0  00:00           0           0       0.000 gal
  0030020096           JUNCTION     0.000    0.000     0  00:00           0           0       0.000 gal
  0030020097           JUNCTION     0.000    0.000     0  00:00           0           0       0.000 gal
  0030020098           JUNCTION     0.000    0.000     0  00:00           0           0       0.000 gal
  0030020099           JUNCTION     0.000    0.000     0  00:00           0           0       0.000 gal
  0030020100           JUNCTION     0.000    0.000     0  00:00           0           0       0.000 gal
  0030020101           JUNCTION     0.000    0.000     0  00:00           0           0       0.000 gal
  0030020102           JUNCTION     0.000    0.000     0  00:00           0           0       0.000 gal
  0030020110           JUNCTION     0.000    0.000     0  00:00           0           0       0.000 gal
  0030020121           JUNCTION     0.000    0.000     0  00:00           0           0       0.000 gal
  0030020122           JUNCTION     0.000    0.000     0  00:00           0           0       0.000 gal
  0030020154           JUNCTION     0.000    0.000     0  00:00           0           0       0.000 gal
  0030030001           JUNCTION     0.000    0.000     0  00:00           0           0       0.000 gal
  0030030002           JUNCTION     0.000    0.000     0  00:00           0           0       0.000 gal
  0030030003           JUNCTION     0.000    0.000     0  00:00           0           0       0.000 gal
  0030030006           JUNCTION     0.000    0.000     0  00:00           0           0       0.000 gal
  0030030007           JUNCTION     0.000    0.000     0  00:00           0           0       0.000 gal
  0030030008           JUNCTION     0.000    0.000     0  00:00           0           0       0.000 gal
  0030030009           JUNCTION     0.000    0.000     0  00:00           0           0       0.000 gal
  0030030010           JUNCTION     0.000    0.000     0  00:00           0           0       0.000 gal
  0030030011           JUNCTION     0.000    0.000     0  00:00           0           0       0.000 gal
  0030030013           JUNCTION     0.000    0.000     0  00:00           0           0       0.000 gal
  0030030014           JUNCTION     0.000    0.000     0  00:00           0           0       0.000 gal
  0030030015           JUNCTION     0.000    0.000     0  00:00           0           0       0.000 gal
  0030030016           JUNCTION     0.000    0.000     0  00:00           0           0       0.000 gal
  0030030079           JUNCTION     0.000    0.000     0  00:00           0           0       0.000 gal
  0030030080           JUNCTION     0.000    0.000     0  00:00           0           0       0.000 gal
  0030030081           JUNCTION     0.000    0.000     0  00:00           0           0       0.000 gal
  0030040001           JUNCTION     0.000    0.000     0  00:00           0           0       0.000 gal
  0030040002           JUNCTION     0.000    0.000     0  00:00           0           0       0.000 gal
  0030040003           JUNCTION     0.000    0.000     0  00:00           0           0       0.000 gal
  0030040004           JUNCTION     0.000    0.000     0  00:00           0           0       0.000 gal
  0030040005           JUNCTION     0.000    0.000     0  00:00           0           0       0.000 gal
  0030040006           JUNCTION     0.000    0.000     0  00:00           0           0       0.000 gal
  0030040007           JUNCTION     0.000    0.000     0  00:00           0           0       0.000 gal
  0030040008           JUNCTION     0.000    0.000     0  00:00           0           0       0.000 gal
  0030040009           JUNCTION     0.000    0.000     0  00:00           0           0       0.000 gal
  0030040010           JUNCTION     0.000    0.000     0  00:00           0           0       0.000 gal
  0030040011           JUNCTION     0.000    0.000     0  00:00           0           0       0.000 gal
  0030040012           JUNCTION     0.000    0.000     0  00:00           0           0       0.000 gal
  0030040013           JUNCTION     0.000    0.000     0  00:00           0           0       0.000 gal
  0030040014           JUNCTION     0.000    0.000     0  00:00           0           0       0.000 gal
  0030040015           JUNCTION     0.000    0.000     0  00:00           0           0       0.000 gal
  0030040016           JUNCTION     0.000    0.000     0  00:00           0           0       0.000 gal
  0030040019           JUNCTION     0.000    0.000     0  00:00           0           0       0.000 gal
  0030040020           JUNCTION     0.000    0.000     0  00:00           0           0       0.000 gal
  0030040021           JUNCTION     0.000    0.000     0  00:00           0           0       0.000 gal
  0030040023           JUNCTION     0.000    0.000     0  00:00           0           0       0.000 gal
  0030040024           JUNCTION     0.000    0.000     0  00:00           0           0       0.000 gal
  0030040025           JUNCTION     0.000    0.000     0  00:00           0           0       0.000 gal
  0030040065           JUNCTION     0.000    0.000     0  00:00           0           0       0.000 gal
  0030050001           JUNCTION     0.000    0.000     0  00:00           0           0       0.000 gal
  0030050002           JUNCTION     0.000    0.000     0  00:00           0           0       0.000 gal
  0030050003           JUNCTION     0.000    0.000     0  00:00           0           0       0.000 gal
  0030050004           JUNCTION     0.000    0.000     0  00:00           0           0       0.000 gal
  0030050005           JUNCTION     0.000    0.000     0  00:00           0           0       0.000 gal
  0030050006           JUNCTION     0.000    0.000     0  00:00           0           0       0.000 gal
  0030050062           JUNCTION     0.000    0.000     0  00:00           0           0       0.000 gal
  0030050063           JUNCTION     0.000    0.000     0  00:00           0           0       0.000 gal
  0030060001           JUNCTION     0.000    0.000     0  00:00           0           0       0.000 gal
  0030060002           JUNCTION     0.000    0.000     0  00:00           0           0       0.000 gal
  0030060003           JUNCTION     0.000    0.000     0  00:00           0           0       0.000 gal
  0030060004           JUNCTION     0.000    0.000     0  00:00           0           0       0.000 gal
  0030060005           JUNCTION     0.000    0.000     0  00:00           0           0       0.000 gal
  0030060006           JUNCTION     0.000    0.000     0  00:00           0           0       0.000 gal
  0030060007           JUNCTION     0.000    0.000     0  00:00           0           0       0.000 gal
  0030060008           JUNCTION     0.000    0.000     0  00:00           0           0       0.000 gal
  0030060009           JUNCTION     0.000    0.000     0  00:00           0           0       0.000 gal
  0030060010           JUNCTION     0.000    0.000     0  00:00           0           0       0.000 gal
  0030060011           JUNCTION     0.000    0.000     0  00:00           0           0       0.000 gal
  003006009A           JUNCTION     0.000    0.000     0  00:00           0           0       0.000 gal
  0030070001           JUNCTION     0.000    0.000     0  00:00           0           0       0.000 gal
  0030070002           JUNCTION     0.000    0.000     0  00:00           0           0       0.000 gal
  0030070003           JUNCTION     0.000    0.000     0  00:00           0           0       0.000 gal
  0030070058           JUNCTION     0.000    0.000     0  00:00           0           0       0.000 gal
  0030070059           JUNCTION     0.000    0.000     0  00:00           0           0       0.000 gal
  0030070060           JUNCTION     0.000    0.000     0  00:00           0           0       0.000 gal
  0030070061           JUNCTION     0.000    0.000     0  00:00           0           0       0.000 gal
  0030070062           JUNCTION     0.000    0.000     0  00:00           0           0       0.000 gal
  0030070063           JUNCTION     0.000    0.000     0  00:00           0           0       0.000 gal
  0030070064           JUNCTION     0.000    0.000     0  00:00           0           0       0.000 gal
  0030070065           JUNCTION     0.000    0.000     0  00:00           0           0       0.000 gal
  0030080001           JUNCTION     0.000    0.000     0  00:00           0           0       0.000 gal
  0030080002           JUNCTION     0.000    0.000     0  00:00           0           0       0.000 gal
  0030080003           JUNCTION     0.000    0.000     0  00:00           0           0       0.000 gal
  0030080004           JUNCTION     0.000    0.000     0  00:00           0           0       0.000 gal
  0030080005           JUNCTION     0.000    0.000     0  00:00           0           0       0.000 gal
  0030080006           JUNCTION     0.000    0.000     0  00:00           0           0       0.000 gal
  0030080007           JUNCTION     0.000    0.000     0  00:00           0           0       0.000 gal
  0030080008           JUNCTION     0.000    0.000     0  00:00           0           0       0.000 gal
  0030080012           JUNCTION     0.000    0.000     0  00:00           0           0       0.000 gal
  0030080013           JUNCTION     0.000    0.000     0  00:00           0           0       0.000 gal
  0030080015           JUNCTION     0.000    0.000     0  00:00           0           0       0.000 gal
  0030080016           JUNCTION     0.000    0.000     0  00:00           0           0       0.000 gal
  0030080018           JUNCTION     0.000    0.000     0  00:00           0           0       0.000 gal
  0030080020           JUNCTION     0.000    0.000     0  00:00           0           0       0.000 gal
  0030080021           JUNCTION     0.000    0.000     0  00:00           0           0       0.000 gal
  0030080023           JUNCTION     0.000    0.000     0  00:00           0           0       0.000 gal
  0030080036           JUNCTION     0.000    0.000     0  00:00           0           0       0.000 gal
  0030080037           JUNCTION     0.000    0.000     0  00:00           0           0       0.000 gal
  0030080038           JUNCTION     0.000    0.000     0  00:00           0           0       0.000 gal
  0030080039           JUNCTION     0.000    0.000     0  00:00           0           0       0.000 gal
  0030080040           JUNCTION     0.000    0.000     0  00:00           0           0       0.000 gal
  0030080041           JUNCTION     0.000    0.000     0  00:00           0           0       0.000 gal
  0030080042           JUNCTION     0.000    0.000     0  00:00           0           0       0.000 gal
  0030080043           JUNCTION     0.000    0.000     0  00:00           0           0       0.000 gal
  0030080044           JUNCTION     0.000    0.000     0  00:00           0           0       0.000 gal
  0030080045           JUNCTION     0.000    0.000     0  00:00           0           0       0.000 gal
  0030080046           JUNCTION     0.000    0.000     0  00:00           0           0       0.000 gal
  0030080053           JUNCTION     0.000    0.000     0  00:00           0           0       0.000 gal
  0030080055           JUNCTION     0.000    0.000     0  00:00           0           0       0.000 gal
  0030080056           JUNCTION     0.000    0.000     0  00:00           0           0       0.000 gal
  0030080057           JUNCTION     0.000    0.000     0  00:00           0           0       0.000 gal
  0030080058           JUNCTION     0.000    0.000     0  00:00           0           0       0.000 gal
  0030080059           JUNCTION     0.000    0.000     0  00:00           0           0       0.000 gal
  0030080060           JUNCTION     0.000    0.000     0  00:00           0           0       0.000 gal
  0030080061           JUNCTION     0.000    0.000     0  00:00           0           0       0.000 gal
  0030080062           JUNCTION     0.000    0.000     0  00:00           0           0       0.000 gal
  0030080063           JUNCTION     0.000    0.000     0  00:00           0           0       0.000 gal
[...]
  0030110002.1            1.00   -nan(ind)  -nan(ind)  -nan(ind)  -nan(ind)  -nan(ind)  -nan(ind)  -nan(ind)  -nan(ind)  -nan(ind)
  0030110003.1            1.00   -nan(ind)  -nan(ind)  -nan(ind)  -nan(ind)  -nan(ind)  -nan(ind)  -nan(ind)  -nan(ind)  -nan(ind)
  0030110004.1            1.00   -nan(ind)  -nan(ind)  -nan(ind)  -nan(ind)  -nan(ind)  -nan(ind)  -nan(ind)  -nan(ind)  -nan(ind)
  0030110005.1            1.00   -nan(ind)  -nan(ind)  -nan(ind)  -nan(ind)  -nan(ind)  -nan(ind)  -nan(ind)  -nan(ind)  -nan(ind)
  0030110006.1            1.00   -nan(ind)  -nan(ind)  -nan(ind)  -nan(ind)  -nan(ind)  -nan(ind)  -nan(ind)  -nan(ind)  -nan(ind)
  0030110007.1            1.00   -nan(ind)  -nan(ind)  -nan(ind)  -nan(ind)  -nan(ind)  -nan(ind)  -nan(ind)  -nan(ind)  -nan(ind)
  0030110008.1            1.00   -nan(ind)  -nan(ind)  -nan(ind)  -nan(ind)  -nan(ind)  -nan(ind)  -nan(ind)  -nan(ind)  -nan(ind)
  0030110009.1            1.00   -nan(ind)  -nan(ind)  -nan(ind)  -nan(ind)  -nan(ind)  -nan(ind)  -nan(ind)  -nan(ind)  -nan(ind)
  0030110010.1            1.00   -nan(ind)  -nan(ind)  -nan(ind)  -nan(ind)  -nan(ind)  -nan(ind)  -nan(ind)  -nan(ind)  -nan(ind)
  0030110011.1            1.00   -nan(ind)  -nan(ind)  -nan(ind)  -nan(ind)  -nan(ind)  -nan(ind)  -nan(ind)  -nan(ind)  -nan(ind)
  0030110012.1            1.00   -nan(ind)  -nan(ind)  -nan(ind)  -nan(ind)  -nan(ind)  -nan(ind)  -nan(ind)  -nan(ind)  -nan(ind)
  0030110013.1            1.00   -nan(ind)  -nan(ind)  -nan(ind)  -nan(ind)  -nan(ind)  -nan(ind)  -nan(ind)  -nan(ind)  -nan(ind)
  0030110014.1            1.00   -nan(ind)  -nan(ind)  -nan(ind)  -nan(ind)  -nan(ind)  -nan(ind)  -nan(ind)  -nan(ind)  -nan(ind)
  0030110015.1            1.00   -nan(ind)  -nan(ind)  -nan(ind)  -nan(ind)  -nan(ind)  -nan(ind)  -nan(ind)  -nan(ind)  -nan(ind)
  0030110016.1            1.00   -nan(ind)  -nan(ind)  -nan(ind)  -nan(ind)  -nan(ind)  -nan(ind)  -nan(ind)  -nan(ind)  -nan(ind)
  0030110017.1            1.00   -nan(ind)  -nan(ind)  -nan(ind)  -nan(ind)  -nan(ind)  -nan(ind)  -nan(ind)  -nan(ind)  -nan(ind)
  0030110018.1            1.00   -nan(ind)  -nan(ind)  -nan(ind)  -nan(ind)  -nan(ind)  -nan(ind)  -nan(ind)  -nan(ind)  -nan(ind)
  0030110019.1            1.00   -nan(ind)  -nan(ind)  -nan(ind)  -nan(ind)  -nan(ind)  -nan(ind)  -nan(ind)  -nan(ind)  -nan(ind)
  0030110020.1            1.00   -nan(ind)  -nan(ind)  -nan(ind)  -nan(ind)  -nan(ind)  -nan(ind)  -nan(ind)  -nan(ind)  -nan(ind)
  0030110021.1            1.00   -nan(ind)  -nan(ind)  -nan(ind)  -nan(ind)  -nan(ind)  -nan(ind)  -nan(ind)  -nan(ind)  -nan(ind)
  0030110022.1            1.00   -nan(ind)  -nan(ind)  -nan(ind)  -nan(ind)  -nan(ind)  -nan(ind)  -nan(ind)  -nan(ind)  -nan(ind)
  0030110049.1            1.00   -nan(ind)  -nan(ind)  -nan(ind)  -nan(ind)  -nan(ind)  -nan(ind)  -nan(ind)  -nan(ind)  -nan(ind)
  0030110050.1            1.00   -nan(ind)  -nan(ind)  -nan(ind)  -nan(ind)  -nan(ind)  -nan(ind)  -nan(ind)  -nan(ind)  -nan(ind)
  0030110051.1            1.00   -nan(ind)  -nan(ind)  -nan(ind)  -nan(ind)  -nan(ind)  -nan(ind)  -nan(ind)  -nan(ind)  -nan(ind)
  0030110052.1            1.00   -nan(ind)  -nan(ind)  -nan(ind)  -nan(ind)  -nan(ind)  -nan(ind)  -nan(ind)  -nan(ind)  -nan(ind)
  0030110053.1            1.00   -nan(ind)  -nan(ind)  -nan(ind)  -nan(ind)  -nan(ind)  -nan(ind)  -nan(ind)  -nan(ind)  -nan(ind)
  0030110054.1            1.00   -nan(ind)  -nan(ind)  -nan(ind)  -nan(ind)  -nan(ind)  -nan(ind)  -nan(ind)  -nan(ind)  -nan(ind)
  0030110055.1            1.00   -nan(ind)  -nan(ind)  -nan(ind)  -nan(ind)  -nan(ind)  -nan(ind)  -nan(ind)  -nan(ind)  -nan(ind)
  0030110056.1            1.00   -nan(ind)  -nan(ind)  -nan(ind)  -nan(ind)  -nan(ind)  -nan(ind)  -nan(ind)  -nan(ind)  -nan(ind)
  0030110057.1            1.00   -nan(ind)  -nan(ind)  -nan(ind)  -nan(ind)  -nan(ind)  -nan(ind)  -nan(ind)  -nan(ind)  -nan(ind)
  0030110058.1            1.00   -nan(ind)  -nan(ind)  -nan(ind)  -nan(ind)  -nan(ind)  -nan(ind)  -nan(ind)  -nan(ind)  -nan(ind)
  0030110059.1            1.00   -nan(ind)  -nan(ind)  -nan(ind)  -nan(ind)  -nan(ind)  -nan(ind)  -nan(ind)  -nan(ind)  -nan(ind)
  003011014A.1            1.00   -nan(ind)  -nan(ind)  -nan(ind)  -nan(ind)  -nan(ind)  -nan(ind)  -nan(ind)  -nan(ind)  -nan(ind)
  0030120001.1            1.00   -nan(ind)  -nan(ind)  -nan(ind)  -nan(ind)  -nan(ind)  -nan(ind)  -nan(ind)  -nan(ind)  -nan(ind)
  0030120002.1            1.00   -nan(ind)  -nan(ind)  -nan(ind)  -nan(ind)  -nan(ind)  -nan(ind)  -nan(ind)  -nan(ind)  -nan(ind)
  0030120003.1            1.00   -nan(ind)  -nan(ind)  -nan(ind)  -nan(ind)  -nan(ind)  -nan(ind)  -nan(ind)  -nan(ind)  -nan(ind)
  0030120004.1            1.00   -nan(ind)  -nan(ind)  -nan(ind)  -nan(ind)  -nan(ind)  -nan(ind)  -nan(ind)  -nan(ind)  -nan(ind)
  0030120005.1            1.00   -nan(ind)  -nan(ind)  -nan(ind)  -nan(ind)  -nan(ind)  -nan(ind)  -nan(ind)  -nan(ind)  -nan(ind)
  0030120006.1            1.00   -nan(ind)  -nan(ind)  -nan(ind)  -nan(ind)  -nan(ind)  -nan(ind)  -nan(ind)  -nan(ind)  -nan(ind)
  0030120007.1            1.00   -nan(ind)  -nan(ind)  -nan(ind)  -nan(ind)  -nan(ind)  -nan(ind)  -nan(ind)  -nan(ind)  -nan(ind)
  0030120008.1            1.00   -nan(ind)  -nan(ind)  -nan(ind)  -nan(ind)  -nan(ind)  -nan(ind)  -nan(ind)  -nan(ind)  -nan(ind)
  0030120009.1            2.30   -nan(ind)  -nan(ind)  -nan(ind)  -nan(ind)  -nan(ind)  -nan(ind)  -nan(ind)  -nan(ind)  -nan(ind)
  0030120010.1            1.00   -nan(ind)  -nan(ind)  -nan(ind)  -nan(ind)  -nan(ind)  -nan(ind)  -nan(ind)  -nan(ind)  -nan(ind)
  0030120015.1            1.00   -nan(ind)  -nan(ind)  -nan(ind)  -nan(ind)  -nan(ind)  -nan(ind)  -nan(ind)  -nan(ind)  -nan(ind)
  0030120016.1            1.00   -nan(ind)  -nan(ind)  -nan(ind)  -nan(ind)  -nan(ind)  -nan(ind)  -nan(ind)  -nan(ind)  -nan(ind)
  0030120017.1            1.00   -nan(ind)  -nan(ind)  -nan(ind)  -nan(ind)  -nan(ind)  -nan(ind)  -nan(ind)  -nan(ind)  -nan(ind)
  0030120018.1            1.00   -nan(ind)  -nan(ind)  -nan(ind)  -nan(ind)  -nan(ind)  -nan(ind)  -nan(ind)  -nan(ind)  -nan(ind)
  0030120019.1            1.00   -nan(ind)  -nan(ind)  -nan(ind)  -nan(ind)  -nan(ind)  -nan(ind)  -nan(ind)  -nan(ind)  -nan(ind)
  0030120020.1            1.00   -nan(ind)  -nan(ind)  -nan(ind)  -nan(ind)  -nan(ind)  -nan(ind)  -nan(ind)  -nan(ind)  -nan(ind)
  0030120021.1            1.00   -nan(ind)  -nan(ind)  -nan(ind)  -nan(ind)  -nan(ind)  -nan(ind)  -nan(ind)  -nan(ind)  -nan(ind)
  0030120022.1            1.00   -nan(ind)  -nan(ind)  -nan(ind)  -nan(ind)  -nan(ind)  -nan(ind)  -nan(ind)  -nan(ind)  -nan(ind)
  0030120023.1            1.00   -nan(ind)  -nan(ind)  -nan(ind)  -nan(ind)  -nan(ind)  -nan(ind)  -nan(ind)  -nan(ind)  -nan(ind)
  0030120024.1            1.00   -nan(ind)  -nan(ind)  -nan(ind)  -nan(ind)  -nan(ind)  -nan(ind)  -nan(ind)  -nan(ind)  -nan(ind)
  0030120025.1            1.00   -nan(ind)  -nan(ind)  -nan(ind)  -nan(ind)  -nan(ind)  -nan(ind)  -nan(ind)  -nan(ind)  -nan(ind)
  0030120026.1            1.00   -nan(ind)  -nan(ind)  -nan(ind)  -nan(ind)  -nan(ind)  -nan(ind)  -nan(ind)  -nan(ind)  -nan(ind)
  0030120028.1            1.00   -nan(ind)  -nan(ind)  -nan(ind)  -nan(ind)  -nan(ind)  -nan(ind)  -nan(ind)  -nan(ind)  -nan(ind)
  0030120029.1            1.00   -nan(ind)  -nan(ind)  -nan(ind)  -nan(ind)  -nan(ind)  -nan(ind)  -nan(ind)  -nan(ind)  -nan(ind)
  0030120030.1            1.00   -nan(ind)  -nan(ind)  -nan(ind)  -nan(ind)  -nan(ind)  -nan(ind)  -nan(ind)  -nan(ind)  -nan(ind)
  0030120031.1            1.00   -nan(ind)  -nan(ind)  -nan(ind)  -nan(ind)  -nan(ind)  -nan(ind)  -nan(ind)  -nan(ind)  -nan(ind)
  0030120032.1            1.00   -nan(ind)  -nan(ind)  -nan(ind)  -nan(ind)  -nan(ind)  -nan(ind)  -nan(ind)  -nan(ind)  -nan(ind)
  0030120033.1            1.00   -nan(ind)  -nan(ind)  -nan(ind)  -nan(ind)  -nan(ind)  -nan(ind)  -nan(ind)  -nan(ind)  -nan(ind)
  0030120034.1            1.00   -nan(ind)  -nan(ind)  -nan(ind)  -nan(ind)  -nan(ind)  -nan(ind)  -nan(ind)  -nan(ind)  -nan(ind)
  0030120035.1            1.00   -nan(ind)  -nan(ind)  -nan(ind)  -nan(ind)  -nan(ind)  -nan(ind)  -nan(ind)  -nan(ind)  -nan(ind)
  0030120036.1            1.00   -nan(ind)  -nan(ind)  -nan(ind)  -nan(ind)  -nan(ind)  -nan(ind)  -nan(ind)  -nan(ind)  -nan(ind)
  0030120037.1            1.00   -nan(ind)  -nan(ind)  -nan(ind)  -nan(ind)  -nan(ind)  -nan(ind)  -nan(ind)  -nan(ind)  -nan(ind)
  0030120038.1            1.00   -nan(ind)  -nan(ind)  -nan(ind)  -nan(ind)  -nan(ind)  -nan(ind)  -nan(ind)  -nan(ind)  -nan(ind)
  0030120039.1            1.00   -nan(ind)  -nan(ind)  -nan(ind)  -nan(ind)  -nan(ind)  -nan(ind)  -nan(ind)  -nan(ind)  -nan(ind)
  0030120042.1            1.00   -nan(ind)  -nan(ind)  -nan(ind)  -nan(ind)  -nan(ind)  -nan(ind)  -nan(ind)  -nan(ind)  -nan(ind)
  0030120048.1            1.00   -nan(ind)  -nan(ind)  -nan(ind)  -nan(ind)  -nan(ind)  -nan(ind)  -nan(ind)  -nan(ind)  -nan(ind)
  0030120049.1            1.00   -nan(ind)  -nan(ind)  -nan(ind)  -nan(ind)  -nan(ind)  -nan(ind)  -nan(ind)  -nan(ind)  -nan(ind)
  0030120050.1            1.00   -nan(ind)  -nan(ind)  -nan(ind)  -nan(ind)  -nan(ind)  -nan(ind)  -nan(ind)  -nan(ind)  -nan(ind)
  0030120051.1            1.00   -nan(ind)  -nan(ind)  -nan(ind)  -nan(ind)  -nan(ind)  -nan(ind)  -nan(ind)  -nan(ind)  -nan(ind)
  0030120052.1            1.00   -nan(ind)  -nan(ind)  -nan(ind)  -nan(ind)  -nan(ind)  -nan(ind)  -nan(ind)  -nan(ind)  -nan(ind)
  0030130001.1            1.00   -nan(ind)  -nan(ind)  -nan(ind)  -nan(ind)  -nan(ind)  -nan(ind)  -nan(ind)  -nan(ind)  -nan(ind)
  0030130002.1            1.00   -nan(ind)  -nan(ind)  -nan(ind)  -nan(ind)  -nan(ind)  -nan(ind)  -nan(ind)  -nan(ind)  -nan(ind)
  0030130003.1            1.00   -nan(ind)  -nan(ind)  -nan(ind)  -nan(ind)  -nan(ind)  -nan(ind)  -nan(ind)  -nan(ind)  -nan(ind)
  0030130004.1            1.00   -nan(ind)  -nan(ind)  -nan(ind)  -nan(ind)  -nan(ind)  -nan(ind)  -nan(ind)  -nan(ind)  -nan(ind)
  0030130005.1            1.00   -nan(ind)  -nan(ind)  -nan(ind)  -nan(ind)  -nan(ind)  -nan(ind)  -nan(ind)  -nan(ind)  -nan(ind)
  0030130006.1            1.00   -nan(ind)  -nan(ind)  -nan(ind)  -nan(ind)  -nan(ind)  -nan(ind)  -nan(ind)  -nan(ind)  -nan(ind)
  0030130043.1            1.00   -nan(ind)  -nan(ind)  -nan(ind)  -nan(ind)  -nan(ind)  -nan(ind)  -nan(ind)  -nan(ind)  -nan(ind)
  0030140001.1            1.00   -nan(ind)  -nan(ind)  -nan(ind)  -nan(ind)  -nan(ind)  -nan(ind)  -nan(ind)  -nan(ind)  -nan(ind)
  0030140002.1            1.00   -nan(ind)  -nan(ind)  -nan(ind)  -nan(ind)  -nan(ind)  -nan(ind)  -nan(ind)  -nan(ind)  -nan(ind)
  0030140003.1            1.21   -nan(ind)  -nan(ind)  -nan(ind)  -nan(ind)  -nan(ind)  -nan(ind)  -nan(ind)  -nan(ind)  -nan(ind)
  0030140004.1            1.00   -nan(ind)  -nan(ind)  -nan(ind)  -nan(ind)  -nan(ind)  -nan(ind)  -nan(ind)  -nan(ind)  -nan(ind)
  0030140005.1            1.00   -nan(ind)  -nan(ind)  -nan(ind)  -nan(ind)  -nan(ind)  -nan(ind)  -nan(ind)  -nan(ind)  -nan(ind)
  0030140006.1            1.00   -nan(ind)  -nan(ind)  -nan(ind)  -nan(ind)  -nan(ind)  -nan(ind)  -nan(ind)  -nan(ind)  -nan(ind)
  0030140007.1            1.00   -nan(ind)  -nan(ind)  -nan(ind)  -nan(ind)  -nan(ind)  -nan(ind)  -nan(ind)  -nan(ind)  -nan(ind)
  0030140008.1            1.00   -nan(ind)  -nan(ind)  -nan(ind)  -nan(ind)  -nan(ind)  -nan(ind)  -nan(ind)  -nan(ind)  -nan(ind)
  0030140009.1            1.00   -nan(ind)  -nan(ind)  -nan(ind)  -nan(ind)  -nan(ind)  -nan(ind)  -nan(ind)  -nan(ind)  -nan(ind)
  0030140010.1            1.00   -nan(ind)  -nan(ind)  -nan(ind)  -nan(ind)  -nan(ind)  -nan(ind)  -nan(ind)  -nan(ind)  -nan(ind)
  0030150035.1            1.00   -nan(ind)  -nan(ind)  -nan(ind)  -nan(ind)  -nan(ind)  -nan(ind)  -nan(ind)  -nan(ind)  -nan(ind)
  003PRV0056.1            1.00   -nan(ind)  -nan(ind)  -nan(ind)  -nan(ind)  -nan(ind)  -nan(ind)  -nan(ind)  -nan(ind)  -nan(ind)
  003PRV0057.1            1.00   -nan(ind)  -nan(ind)  -nan(ind)  -nan(ind)  -nan(ind)  -nan(ind)  -nan(ind)  -nan(ind)  -nan(ind)
  003PRV0058.1            1.00   -nan(ind)  -nan(ind)  -nan(ind)  -nan(ind)  -nan(ind)  -nan(ind)  -nan(ind)  -nan(ind)  -nan(ind)
  003PRV0059.1            1.00   -nan(ind)  -nan(ind)  -nan(ind)  -nan(ind)  -nan(ind)  -nan(ind)  -nan(ind)  -nan(ind)  -nan(ind)
  003PRV0060.1            1.00   -nan(ind)  -nan(ind)  -nan(ind)  -nan(ind)  -nan(ind)  -nan(ind)  -nan(ind)  -nan(ind)  -nan(ind)
  003PRV0061.1            1.00   -nan(ind)  -nan(ind)  -nan(ind)  -nan(ind)  -nan(ind)  -nan(ind)  -nan(ind)  -nan(ind)  -nan(ind)
  003PRV0062.1            1.00   -nan(ind)  -nan(ind)  -nan(ind)  -nan(ind)  -nan(ind)  -nan(ind)  -nan(ind)  -nan(ind)  -nan(ind)
  003PRV0063.1            1.00   -nan(ind)  -nan(ind)  -nan(ind)  -nan(ind)  -nan(ind)  -nan(ind)  -nan(ind)  -nan(ind)  -nan(ind)
  003PRV0064.1            1.00   -nan(ind)  -nan(ind)  -nan(ind)  -nan(ind)  -nan(ind)  -nan(ind)  -nan(ind)  -nan(ind)  -nan(ind)
  003PRV0066.1            1.00   -nan(ind)  -nan(ind)  -nan(ind)  -nan(ind)  -nan(ind)  -nan(ind)  -nan(ind)  -nan(ind)  -nan(ind)
  003PRV0067.1            1.00   -nan(ind)  -nan(ind)  -nan(ind)  -nan(ind)  -nan(ind)  -nan(ind)  -nan(ind)  -nan(ind)  -nan(ind)
  003PRV0069.1            1.01   -nan(ind)  -nan(ind)  -nan(ind)  -nan(ind)  -nan(ind)  -nan(ind)  -nan(ind)  -nan(ind)  -nan(ind)
  003PRV0070.1            1.00   -nan(ind)  -nan(ind)  -nan(ind)  -nan(ind)  -nan(ind)  -nan(ind)  -nan(ind)  -nan(ind)  -nan(ind)
  003PRV0071.1            1.00   -nan(ind)  -nan(ind)  -nan(ind)  -nan(ind)  -nan(ind)  -nan(ind)  -nan(ind)  -nan(ind)  -nan(ind)
  003PRV0072.1            1.09   -nan(ind)  -nan(ind)  -nan(ind)  -nan(ind)  -nan(ind)  -nan(ind)  -nan(ind)  -nan(ind)  -nan(ind)
  003PRV0073.1            1.00   -nan(ind)  -nan(ind)  -nan(ind)  -nan(ind)  -nan(ind)  -nan(ind)  -nan(ind)  -nan(ind)  -nan(ind)
  0150010002.1            1.22   -nan(ind)  -nan(ind)  -nan(ind)  -nan(ind)  -nan(ind)  -nan(ind)  -nan(ind)  -nan(ind)  -nan(ind)
  0150010011.2            1.00   -nan(ind)  -nan(ind)  -nan(ind)  -nan(ind)  -nan(ind)  -nan(ind)  -nan(ind)  -nan(ind)  -nan(ind)
  0150010012.1            1.00   -nan(ind)  -nan(ind)  -nan(ind)  -nan(ind)  -nan(ind)  -nan(ind)  -nan(ind)  -nan(ind)  -nan(ind)
  0150010036.1            1.00   -nan(ind)  -nan(ind)  -nan(ind)  -nan(ind)  -nan(ind)  -nan(ind)  -nan(ind)  -nan(ind)  -nan(ind)
  0150010037.1            1.00   -nan(ind)  -nan(ind)  -nan(ind)  -nan(ind)  -nan(ind)  -nan(ind)  -nan(ind)  -nan(ind)  -nan(ind)
  0150010038.1            1.00   -nan(ind)  -nan(ind)  -nan(ind)  -nan(ind)  -nan(ind)  -nan(ind)  -nan(ind)  -nan(ind)  -nan(ind)
  0150010039.1            1.00   -nan(ind)  -nan(ind)  -nan(ind)  -nan(ind)  -nan(ind)  -nan(ind)  -nan(ind)  -nan(ind)  -nan(ind)
  0150010040.1            1.00   -nan(ind)  -nan(ind)  -nan(ind)  -nan(ind)  -nan(ind)  -nan(ind)  -nan(ind)  -nan(ind)  -nan(ind)
  0150010041.1            1.00   -nan(ind)  -nan(ind)  -nan(ind)  -nan(ind)  -nan(ind)  -nan(ind)  -nan(ind)  -nan(ind)  -nan(ind)
  0150010044.1            1.00   -nan(ind)  -nan(ind)  -nan(ind)  -nan(ind)  -nan(ind)  -nan(ind)  -nan(ind)  -nan(ind)  -nan(ind)
  0150010045.1            1.00   -nan(ind)  -nan(ind)  -nan(ind)  -nan(ind)  -nan(ind)  -nan(ind)  -nan(ind)  -nan(ind)  -nan(ind)
  0150010048.1            1.00   -nan(ind)  -nan(ind)  -nan(ind)  -nan(ind)  -nan(ind)  -nan(ind)  -nan(ind)  -nan(ind)  -nan(ind)
  0150010049.1            1.00   -nan(ind)  -nan(ind)  -nan(ind)  -nan(ind)  -nan(ind)  -nan(ind)  -nan(ind)  -nan(ind)  -nan(ind)
  0150010054.1            1.00   -nan(ind)  -nan(ind)  -nan(ind)  -nan(ind)  -nan(ind)  -nan(ind)  -nan(ind)  -nan(ind)  -nan(ind)
  0150010057.1            1.00   -nan(ind)  -nan(ind)  -nan(ind)  -nan(ind)  -nan(ind)  -nan(ind)  -nan(ind)  -nan(ind)  -nan(ind)
  0150010063.1            1.00   -nan(ind)  -nan(ind)  -nan(ind)  -nan(ind)  -nan(ind)  -nan(ind)  -nan(ind)  -nan(ind)  -nan(ind)
  0500010001.2            1.00   -nan(ind)  -nan(ind)  -nan(ind)  -nan(ind)  -nan(ind)  -nan(ind)  -nan(ind)  -nan(ind)  -nan(ind)
  0500010002.1            1.00   -nan(ind)  -nan(ind)  -nan(ind)  -nan(ind)  -nan(ind)  -nan(ind)  -nan(ind)  -nan(ind)  -nan(ind)
  0500010003.1            1.00   -nan(ind)  -nan(ind)  -nan(ind)  -nan(ind)  -nan(ind)  -nan(ind)  -nan(ind)  -nan(ind)  -nan(ind)
  0500010006.1            1.00   -nan(ind)  -nan(ind)  -nan(ind)  -nan(ind)  -nan(ind)  -nan(ind)  -nan(ind)  -nan(ind)  -nan(ind)
  0500010011.1            1.00   -nan(ind)  -nan(ind)  -nan(ind)  -nan(ind)  -nan(ind)  -nan(ind)  -nan(ind)  -nan(ind)  -nan(ind)
  0500010014.1            1.00   -nan(ind)  -nan(ind)  -nan(ind)  -nan(ind)  -nan(ind)  -nan(ind)  -nan(ind)  -nan(ind)  -nan(ind)
  0500010020.1            1.00   -nan(ind)  -nan(ind)  -nan(ind)  -nan(ind)  -nan(ind)  -nan(ind)  -nan(ind)  -nan(ind)  -nan(ind)
  0500010057.1            1.00   -nan(ind)  -nan(ind)  -nan(ind)  -nan(ind)  -nan(ind)  -nan(ind)  -nan(ind)  -nan(ind)  -nan(ind)
  0500010058.1            5.35   -nan(ind)  -nan(ind)  -nan(ind)  -nan(ind)  -nan(ind)  -nan(ind)  -nan(ind)  -nan(ind)  -nan(ind)
  0500010064.1            1.00   -nan(ind)  -nan(ind)  -nan(ind)  -nan(ind)  -nan(ind)  -nan(ind)  -nan(ind)  -nan(ind)  -nan(ind)
  0500010065.1            1.00   -nan(ind)  -nan(ind)  -nan(ind)  -nan(ind)  -nan(ind)  -nan(ind)  -nan(ind)  -nan(ind)  -nan(ind)
  0500010066.1            1.00   -nan(ind)  -nan(ind)  -nan(ind)  -nan(ind)  -nan(ind)  -nan(ind)  -nan(ind)  -nan(ind)  -nan(ind)
  0500010067.1            1.00   -nan(ind)  -nan(ind)  -nan(ind)  -nan(ind)  -nan(ind)  -nan(ind)  -nan(ind)  -nan(ind)  -nan(ind)
  0500010068.1            1.00   -nan(ind)  -nan(ind)  -nan(ind)  -nan(ind)  -nan(ind)  -nan(ind)  -nan(ind)  -nan(ind)  -nan(ind)
  0500010069.1            1.00   -nan(ind)  -nan(ind)  -nan(ind)  -nan(ind)  -nan(ind)  -nan(ind)  -nan(ind)  -nan(ind)  -nan(ind)
  0500010074.1            1.00   -nan(ind)  -nan(ind)  -nan(ind)  -nan(ind)  -nan(ind)  -nan(ind)  -nan(ind)  -nan(ind)  -nan(ind)
  0500010087.1            1.00   -nan(ind)  -nan(ind)  -nan(ind)  -nan(ind)  -nan(ind)  -nan(ind)  -nan(ind)  -nan(ind)  -nan(ind)
  0500010102.1            1.00   -nan(ind)  -nan(ind)  -nan(ind)  -nan(ind)  -nan(ind)  -nan(ind)  -nan(ind)  -nan(ind)  -nan(ind)
  0500010103.1            1.00   -nan(ind)  -nan(ind)  -nan(ind)  -nan(ind)  -nan(ind)  -nan(ind)  -nan(ind)  -nan(ind)  -nan(ind)
  0500010126.1            1.00   -nan(ind)  -nan(ind)  -nan(ind)  -nan(ind)  -nan(ind)  -nan(ind)  -nan(ind)  -nan(ind)  -nan(ind)
  0500010130.1            1.00   -nan(ind)  -nan(ind)  -nan(ind)  -nan(ind)  -nan(ind)  -nan(ind)  -nan(ind)  -nan(ind)  -nan(ind)
  0500010131.1            1.00   -nan(ind)  -nan(ind)  -nan(ind)  -nan(ind)  -nan(ind)  -nan(ind)  -nan(ind)  -nan(ind)  -nan(ind)
  0500010135.1            1.00   -nan(ind)  -nan(ind)  -nan(ind)  -nan(ind)  -nan(ind)  -nan(ind)  -nan(ind)  -nan(ind)  -nan(ind)
  0500010136.1            1.00   -nan(ind)  -nan(ind)  -nan(ind)  -nan(ind)  -nan(ind)  -nan(ind)  -nan(ind)  -nan(ind)  -nan(ind)
  0500010137.1            1.00   -nan(ind)  -nan(ind)  -nan(ind)  -nan(ind)  -nan(ind)  -nan(ind)  -nan(ind)  -nan(ind)  -nan(ind)
  0500010138.1            1.00   -nan(ind)  -nan(ind)  -nan(ind)  -nan(ind)  -nan(ind)  -nan(ind)  -nan(ind)  -nan(ind)  -nan(ind)
  XXXX000018.1            2.92   -nan(ind)  -nan(ind)  -nan(ind)  -nan(ind)  -nan(ind)  -nan(ind)  -nan(ind)  -nan(ind)  -nan(ind)
  
  
  *************************
  Conduit Surcharge Summary
  *************************
  
  No conduits were surcharged.
  

  Analysis begun on:  Sat Nov 30 08:10:07 2019
  Analysis ended on:  Sat Nov 30 08:10:07 2019
  Total elapsed time: < 1 sec