
  EPA STORM WATER MANAGEMENT MODEL - VERSION 5.1 (Build 5.1.013)
  --------------------------------------------------------------

  WARNING 03: negative offset ignored for Link C3
  
  *********************************************************
  NOTE: The summary statistics displayed in this report are
  based on results found at every computational time step,  
  not just on results from each reporting time step.
  *********************************************************
  
  ****************
  Analysis Options
  ****************
  Flow Units ............... GPM
  Process Models:
    Rainfall/Runoff ........ NO
    RDII ................... NO
    Snowmelt ............... NO
    Groundwater ............ NO
    Flow Routing ........... YES
    Ponding Allowed ........ YES
    Water Quality .......... NO
  Flow Routing Method ...... DYNWAVE
  Surcharge Method ......... EXTRAN
  Starting Date ............ 06/01/2012 00:00:00
  Ending Date .............. 06/01/2012 23:55:00
  Antecedent Dry Days ...... 5.0
  Report Time Step ......... 00:00:10
  Routing Time Step ........ 2.00 sec
  Variable Time Step ....... YES
  Maximum Trials ........... 8
  Number of Threads ........ 1
  Head Tolerance ........... 0.000010 ft
  
  
  **************************        Volume        Volume
  Flow Routing Continuity        acre-feet      10^6 gal
  **************************     ---------     ---------
  Dry Weather Inflow .......         0.000         0.000
  Wet Weather Inflow .......         0.000         0.000
  Groundwater Inflow .......         0.000         0.000
  RDII Inflow ..............         0.000         0.000
  External Inflow ..........         0.000         0.000
  External Outflow .........         0.000         0.000
  Flooding Loss ............         0.000         0.000
  Evaporation Loss .........         0.000         0.000
  Exfiltration Loss ........         0.000         0.000
  Initial Stored Volume ....         0.000         0.000
  Final Stored Volume ......         0.000         0.000
  Continuity Error (%) .....         0.000
  
  
  ***************************
  Time-Step Critical Elements
  ***************************
  None
  
  
  ********************************
  Highest Flow Instability Indexes
  ********************************
  All links are stable.
  
  
  ******************
  Node Depth Summary
  ******************
  
  ---------------------------------------------------------------------------------
                                 Average  Maximum  Maximum  Time of Max    Reported
                                   Depth    Depth      HGL   Occurrence   Max Depth
  Node                 Type         Feet     Feet     Feet  days hr:min        Feet
  ---------------------------------------------------------------------------------
  1                    JUNCTION  -nan(ind)     0.00   397.63     0  00:00        0.00
  10                   JUNCTION  -nan(ind)     0.00   467.42     0  00:00        0.00
  11                   JUNCTION  -nan(ind)     0.00   466.54     0  00:00        0.00
  2                    JUNCTION  -nan(ind)     0.00   397.17     0  00:00        0.00
  21                   JUNCTION  -nan(ind)     0.00   396.46     0  00:00        0.00
  22                   JUNCTION  -nan(ind)     0.00   395.12     0  00:00        0.00
  24                   JUNCTION  -nan(ind)     0.00   398.26     0  00:00        0.00
  3                    JUNCTION  -nan(ind)     0.00   395.08     0  00:00        0.00
  30                   JUNCTION  -nan(ind)     0.00   425.26     0  00:00        0.00
  31                   JUNCTION  -nan(ind)     0.00   422.10     0  00:00        0.00
  32                   JUNCTION  -nan(ind)     0.00   420.48     0  00:00        0.00
  33                   JUNCTION  -nan(ind)     0.00   412.09     0  00:00        0.00
  34                   JUNCTION  -nan(ind)     0.00   411.54     0  00:00        0.00
  35                   JUNCTION  -nan(ind)     0.00   409.86     0  00:00        0.00
  4                    JUNCTION  -nan(ind)     0.00   394.04     0  00:00        0.00
  40                   JUNCTION  -nan(ind)     0.00   403.09     0  00:00        0.00
  42                   JUNCTION  -nan(ind)     0.00   411.38     0  00:00        0.00
  43                   JUNCTION  -nan(ind)     0.00   420.73     0  00:00        0.00
  44                   JUNCTION  -nan(ind)     0.00   415.92     0  00:00        0.00
  45                   JUNCTION  -nan(ind)     0.00   411.10     0  00:00        0.00
  50                   JUNCTION  -nan(ind)     0.00   433.81     0  00:00        0.00
  51                   JUNCTION  -nan(ind)     0.00   430.10     0  00:00        0.00
  52                   JUNCTION  -nan(ind)     0.00   425.37     0  00:00        0.00
  53                   JUNCTION  -nan(ind)     0.00   423.01     0  00:00        0.00
  54                   JUNCTION  -nan(ind)     0.00   403.98     0  00:00        0.00
  6                    JUNCTION  -nan(ind)     0.00   435.26     0  00:00        0.00
  60                   JUNCTION  -nan(ind)     0.00   413.50     0  00:00        0.00
  61                   JUNCTION  -nan(ind)     0.00   410.94     0  00:00        0.00
  62                   JUNCTION  -nan(ind)     0.00   407.02     0  00:00        0.00
  63                   JUNCTION  -nan(ind)     0.00   403.24     0  00:00        0.00
  70                   JUNCTION  -nan(ind)     0.00   437.79     0  00:00        0.00
  71                   JUNCTION  -nan(ind)     0.00   436.64     0  00:00        0.00
  72                   JUNCTION  -nan(ind)     0.00   435.73     0  00:00        0.00
  73                   JUNCTION  -nan(ind)     0.00   436.20     0  00:00        0.00
  8                    JUNCTION  -nan(ind)     0.00   470.99     0  00:00        0.00
  80                   JUNCTION  -nan(ind)     0.00   443.08     0  00:00        0.00
  81                   JUNCTION  -nan(ind)     0.00   431.96     0  00:00        0.00
  83                   JUNCTION  -nan(ind)     0.00   445.72     0  00:00        0.00
  84                   JUNCTION  -nan(ind)     0.00   441.52     0  00:00        0.00
  86                   JUNCTION  -nan(ind)     0.00   442.08     0  00:00        0.00
  87                   JUNCTION  -nan(ind)     0.00   435.54     0  00:00        0.00
  9                    JUNCTION  -nan(ind)     0.00   469.13     0  00:00        0.00
  PS-1                 JUNCTION  -nan(ind)     0.00   433.50     0  00:00        0.00
  PS-2                 JUNCTION  -nan(ind)     0.00   441.50     0  00:00        0.00
  PS-3                 JUNCTION  -nan(ind)     0.00   441.20     0  00:00        0.00
  PS-4                 JUNCTION  -nan(ind)     0.00   400.44     0  00:00        0.00
  PS-5                 JUNCTION  -nan(ind)     0.00   403.75     0  00:00        0.00
  PS-6                 JUNCTION  -nan(ind)     0.00   397.13     0  00:00        0.00
  12                   OUTFALL   -nan(ind)     0.00   466.73     0  00:00        0.00
  23                   STORAGE   -nan(ind)     0.00   391.48     0  00:00        0.00
  41                   STORAGE   -nan(ind)     0.00   399.85     0  00:00        0.00
  5                    STORAGE   -nan(ind)     0.00   388.76     0  00:00        0.00
  7                    STORAGE   -nan(ind)     0.00   430.67     0  00:00        0.00
  82                   STORAGE   -nan(ind)     0.00   424.86     0  00:00        0.00
  85                   STORAGE   -nan(ind)     0.00   428.03     0  00:00        0.00
  
  
  *******************
  Node Inflow Summary
  *******************
  
  -------------------------------------------------------------------------------------------------
                                  Maximum  Maximum                  Lateral       Total        Flow
                                  Lateral    Total  Time of Max      Inflow      Inflow     Balance
                                   Inflow   Inflow   Occurrence      Volume      Volume       Error
  Node                 Type           GPM      GPM  days hr:min    10^6 gal    10^6 gal     Percent
  -------------------------------------------------------------------------------------------------
  1                    JUNCTION      0.00     0.00     0  00:00           0           0       0.000 gal
  10                   JUNCTION      0.00     0.00     0  00:00           0           0       0.000 gal
  11                   JUNCTION      0.00     0.00     0  00:00           0           0       0.000 gal
  2                    JUNCTION      0.00     0.00     0  00:00           0           0       0.000 gal
  21                   JUNCTION      0.00     0.00     0  00:00           0           0       0.000 gal
  22                   JUNCTION      0.00     0.00     0  00:00           0           0       0.000 gal
  24                   JUNCTION      0.00     0.00     0  00:00           0           0       0.000 gal
  3                    JUNCTION      0.00     0.00     0  00:00           0           0       0.000 gal
  30                   JUNCTION      0.00     0.00     0  00:00           0           0       0.000 gal
  31                   JUNCTION      0.00     0.00     0  00:00           0           0       0.000 gal
  32                   JUNCTION      0.00     0.00     0  00:00           0           0       0.000 gal
  33                   JUNCTION      0.00     0.00     0  00:00           0           0       0.000 gal
  34                   JUNCTION      0.00     0.00     0  00:00           0           0       0.000 gal
  35                   JUNCTION      0.00     0.00     0  00:00           0           0       0.000 gal
  4                    JUNCTION      0.00     0.00     0  00:00           0           0       0.000 gal
  40                   JUNCTION      0.00     0.00     0  00:00           0           0       0.000 gal
  42                   JUNCTION      0.00     0.00     0  00:00           0           0       0.000 gal
  43                   JUNCTION      0.00     0.00     0  00:00           0           0       0.000 gal
  44                   JUNCTION      0.00     0.00     0  00:00           0           0       0.000 gal
  45                   JUNCTION      0.00     0.00     0  00:00           0           0       0.000 gal
  50                   JUNCTION      0.00     0.00     0  00:00           0           0       0.000 gal
  51                   JUNCTION      0.00     0.00     0  00:00           0           0       0.000 gal
  52                   JUNCTION      0.00     0.00     0  00:00           0           0       0.000 gal
  53                   JUNCTION      0.00     0.00     0  00:00           0           0       0.000 gal
  54                   JUNCTION      0.00     0.00     0  00:00           0           0       0.000 gal
  6                    JUNCTION      0.00     0.00     0  00:00           0           0       0.000 gal
  60                   JUNCTION      0.00     0.00     0  00:00           0           0       0.000 gal
  61                   JUNCTION      0.00     0.00     0  00:00           0           0       0.000 gal
  62                   JUNCTION      0.00     0.00     0  00:00           0           0       0.000 gal
  63                   JUNCTION      0.00     0.00     0  00:00           0           0       0.000 gal
  70                   JUNCTION      0.00     0.00     0  00:00           0           0       0.000 gal
  71                   JUNCTION      0.00     0.00     0  00:00           0           0       0.000 gal
  72                   JUNCTION      0.00     0.00     0  00:00           0           0       0.000 gal
  73                   JUNCTION      0.00     0.00     0  00:00           0           0       0.000 gal
  8                    JUNCTION      0.00     0.00     0  00:00           0           0       0.000 gal
  80                   JUNCTION      0.00     0.00     0  00:00           0           0       0.000 gal
  81                   JUNCTION      0.00     0.00     0  00:00           0           0       0.000 gal
  83                   JUNCTION      0.00     0.00     0  00:00           0           0       0.000 gal
  84                   JUNCTION      0.00     0.00     0  00:00           0           0       0.000 gal
  86                   JUNCTION      0.00     0.00     0  00:00           0           0       0.000 gal
  87                   JUNCTION      0.00     0.00     0  00:00           0           0       0.000 gal
  9                    JUNCTION      0.00     0.00     0  00:00           0           0       0.000 gal
  PS-1                 JUNCTION      0.00     0.00     0  00:00           0           0       0.000 gal
  PS-2                 JUNCTION      0.00     0.00     0  00:00           0           0       0.000 gal
  PS-3                 JUNCTION      0.00     0.00     0  00:00           0           0       0.000 gal
  PS-4                 JUNCTION      0.00     0.00     0  00:00           0           0       0.000 gal
  PS-5                 JUNCTION      0.00     0.00     0  00:00           0           0       0.000 gal
  PS-6                 JUNCTION      0.00     0.00     0  00:00           0           0       0.000 gal
  12                   OUTFALL       0.00     0.00     0  00:00           0           0       0.000 gal
  23                   STORAGE       0.00     0.00     0  00:00           0           0       0.000 gal
  41                   STORAGE       0.00     0.00     0  00:00           0           0       0.000 gal
  5                    STORAGE       0.00     0.00     0  00:00           0           0       0.000 gal
  7                    STORAGE       0.00     0.00     0  00:00           0           0       0.000 gal
  82                   STORAGE       0.00     0.00     0  00:00           0           0       0.000 gal
  85                   STORAGE       0.00     0.00     0  00:00           0           0       0.000 gal
  
  
  **********************
  Node Surcharge Summary
  **********************
  
  No nodes were surcharged.
  
  
  *********************
  Node Flooding Summary
  *********************
  
  No nodes were flooded.
  
  
  **********************
  Storage Volume Summary
  **********************
  
  --------------------------------------------------------------------------------------------------
                         Average     Avg  Evap Exfil       Maximum     Max    Time of Max    Maximum
                          Volume    Pcnt  Pcnt  Pcnt        Volume    Pcnt     Occurrence    Outflow
  Storage Unit          1000 ft3    Full  Loss  Loss      1000 ft3    Full    days hr:min        GPM
  --------------------------------------------------------------------------------------------------
  23                   -nan(ind)    -nan(ind)     0     0         0.000       0       0  00:00       0.00
  41                   -nan(ind)    -nan(ind)     0     0         0.000       0       0  00:00       0.00
  5                    -nan(ind)    -nan(ind)     0     0         0.000       0       0  00:00       0.00
  7                    -nan(ind)    -nan(ind)     0     0         0.000       0       0  00:00       0.00
  82                   -nan(ind)    -nan(ind)     0     0         0.000       0       0  00:00       0.00
  85                   -nan(ind)    -nan(ind)     0     0         0.000       0       0  00:00       0.00
  
  
  ***********************
  Outfall Loading Summary
  ***********************
  
  -----------------------------------------------------------
                         Flow       Avg       Max       Total
                         Freq      Flow      Flow      Volume
  Outfall Node           Pcnt       GPM       GPM    10^6 gal
  -----------------------------------------------------------
  12                  -nan(ind)      0.00      0.00       0.000
  -----------------------------------------------------------
  System              -nan(ind)      0.00      0.00       0.000
  
  
  ********************
  Link Flow Summary
  ********************
  
  -----------------------------------------------------------------------------
                                 Maximum  Time of Max   Maximum    Max/    Max/
                                  |Flow|   Occurrence   |Veloc|    Full    Full
  Link                 Type          GPM  days hr:min    ft/sec    Flow   Depth
  -----------------------------------------------------------------------------
  C1                   CONDUIT      0.00     0  00:00      0.00    0.00    0.00
  C10                  CONDUIT      0.00     0  00:00      0.00    0.00    0.00
  C11                  CONDUIT      0.00     0  00:00      0.00    0.00    0.00
  C12                  CONDUIT      0.00     0  00:00      0.00    0.00    0.00
  C13                  CONDUIT      0.00     0  00:00      0.00    0.00    0.00
  C14                  CONDUIT      0.00     0  00:00      0.00    0.00    0.00
  C15                  CONDUIT      0.00     0  00:00      0.00    0.00    0.00
  C16                  CONDUIT      0.00     0  00:00      0.00    0.00    0.00
  C17                  CONDUIT      0.00     0  00:00      0.00    0.00    0.00
  C18                  CONDUIT      0.00     0  00:00      0.00    0.00    0.00
  C19                  CONDUIT      0.00     0  00:00      0.00    0.00    0.00
  C2                   CONDUIT      0.00     0  00:00      0.00    0.00    0.00
  C20                  CONDUIT      0.00     0  00:00      0.00    0.00    0.00
  C21                  CONDUIT      0.00     0  00:00      0.00    0.00    0.00
  C22                  CONDUIT      0.00     0  00:00      0.00    0.00    0.00
  C23                  CONDUIT      0.00     0  00:00      0.00    0.00    0.00
  C24                  CONDUIT      0.00     0  00:00      0.00    0.00    0.00
  C25                  CONDUIT      0.00     0  00:00      0.00    0.00    0.00
  C26                  CONDUIT      0.00     0  00:00      0.00    0.00    0.00
  C27                  CONDUIT      0.00     0  00:00      0.00    0.00    0.00
  C28                  CONDUIT      0.00     0  00:00      0.00    0.00    0.00
  C29                  CONDUIT      0.00     0  00:00      0.00    0.00    0.00
  C3                   CONDUIT      0.00     0  00:00      0.00    0.00    0.00
  C30                  CONDUIT      0.00     0  00:00      0.00    0.00    0.00
  C31                  CONDUIT      0.00     0  00:00      0.00    0.00    0.00
  C32                  CONDUIT      0.00     0  00:00      0.00    0.00    0.00
  C33                  CONDUIT      0.00     0  00:00      0.00    0.00    0.00
  C34                  CONDUIT      0.00     0  00:00      0.00    0.00    0.00
  C35                  CONDUIT      0.00     0  00:00      0.00    0.00    0.00
  C36                  CONDUIT      0.00     0  00:00      0.00    0.00    0.00
  C37                  CONDUIT      0.00     0  00:00      0.00    0.00    0.00
  C38                  CONDUIT      0.00     0  00:00      0.00    0.00    0.00
  C39                  CONDUIT      0.00     0  00:00      0.00    0.00    0.00
  C4                   CONDUIT      0.00     0  00:00      0.00    0.00    0.00
  C40                  CONDUIT      0.00     0  00:00      0.00    0.00    0.00
  C41                  CONDUIT      0.00     0  00:00      0.00    0.00    0.00
  C42                  CONDUIT      0.00     0  00:00      0.00    0.00    0.00
  C43                  CONDUIT      0.00     0  00:00      0.00    0.00    0.00
  C44                  CONDUIT      0.00     0  00:00      0.00    0.00    0.00
  C45                  CONDUIT      0.00     0  00:00      0.00    0.00    0.00
  C46                  CONDUIT      0.00     0  00:00      0.00    0.00    0.00
  C47                  CONDUIT      0.00     0  00:00      0.00    0.00    0.00
  C48                  CONDUIT      0.00     0  00:00      0.00    0.00    0.00
  C5                   CONDUIT      0.00     0  00:00      0.00    0.00    0.00
  C6                   CONDUIT      0.00     0  00:00      0.00    0.00    0.00
  C7                   CONDUIT      0.00     0  00:00      0.00    0.00    0.00
  C8                   CONDUIT      0.00     0  00:00      0.00    0.00    0.00
  C9                   CONDUIT      0.00     0  00:00      0.00    0.00    0.00
  PUMP1                PUMP         0.00     0  00:00              0.00
  PUMP2                PUMP         0.00     0  00:00              0.00
  PUMP3                PUMP         0.00     0  00:00              0.00
  PUMP4                PUMP         0.00     0  00:00              0.00
  PUMP5                PUMP         0.00     0  00:00              0.00
  PUMP6                PUMP         0.00     0  00:00              0.00
  
  
  ***************************
  Flow Classification Summary
  ***************************
  
  -------------------------------------------------------------------------------------
                      Adjusted    ---------- Fraction of Time in Flow Class ---------- 
                       /Actual         Up    Down  Sub   Sup   Up    Down  Norm  Inlet 
  Conduit               Length    Dry  Dry   Dry   Crit  Crit  Crit  Crit  Ltd   Ctrl  
  -------------------------------------------------------------------------------------
  C1                      1.00   -nan(ind)  -nan(ind)  -nan(ind)  -nan(ind)  -nan(ind)  -nan(ind)  -nan(ind)  -nan(ind)  -nan(ind)
  C10                     1.00   -nan(ind)  -nan(ind)  -nan(ind)  -nan(ind)  -nan(ind)  -nan(ind)  -nan(ind)  -nan(ind)  -nan(ind)
  C11                     1.00   -nan(ind)  -nan(ind)  -nan(ind)  -nan(ind)  -nan(ind)  -nan(ind)  -nan(ind)  -nan(ind)  -nan(ind)
  C12                     1.00   -nan(ind)  -nan(ind)  -nan(ind)  -nan(ind)  -nan(ind)  -nan(ind)  -nan(ind)  -nan(ind)  -nan(ind)
  C13                     1.00   -nan(ind)  -nan(ind)  -nan(ind)  -nan(ind)  -nan(ind)  -nan(ind)  -nan(ind)  -nan(ind)  -nan(ind)
  C14                     1.00   -nan(ind)  -nan(ind)  -nan(ind)  -nan(ind)  -nan(ind)  -nan(ind)  -nan(ind)  -nan(ind)  -nan(ind)
  C15                     1.00   -nan(ind)  -nan(ind)  -nan(ind)  -nan(ind)  -nan(ind)  -nan(ind)  -nan(ind)  -nan(ind)  -nan(ind)
  C16                     1.00   -nan(ind)  -nan(ind)  -nan(ind)  -nan(ind)  -nan(ind)  -nan(ind)  -nan(ind)  -nan(ind)  -nan(ind)
  C17                     1.00   -nan(ind)  -nan(ind)  -nan(ind)  -nan(ind)  -nan(ind)  -nan(ind)  -nan(ind)  -nan(ind)  -nan(ind)
  C18                     1.00   -nan(ind)  -nan(ind)  -nan(ind)  -nan(ind)  -nan(ind)  -nan(ind)  -nan(ind)  -nan(ind)  -nan(ind)
  C19                     1.00   -nan(ind)  -nan(ind)  -nan(ind)  -nan(ind)  -nan(ind)  -nan(ind)  -nan(ind)  -nan(ind)  -nan(ind)
  C2                      1.00   -nan(ind)  -nan(ind)  -nan(ind)  -nan(ind)  -nan(ind)  -nan(ind)  -nan(ind)  -nan(ind)  -nan(ind)
  C20                     1.00   -nan(ind)  -nan(ind)  -nan(ind)  -nan(ind)  -nan(ind)  -nan(ind)  -nan(ind)  -nan(ind)  -nan(ind)
  C21                     1.00   -nan(ind)  -nan(ind)  -nan(ind)  -nan(ind)  -nan(ind)  -nan(ind)  -nan(ind)  -nan(ind)  -nan(ind)
  C22                     1.00   -nan(ind)  -nan(ind)  -nan(ind)  -nan(ind)  -nan(ind)  -nan(ind)  -nan(ind)  -nan(ind)  -nan(ind)
  C23                     1.00   -nan(ind)  -nan(ind)  -nan(ind)  -nan(ind)  -nan(ind)  -nan(ind)  -nan(ind)  -nan(ind)  -nan(ind)
  C24                     1.00   -nan(ind)  -nan(ind)  -nan(ind)  -nan(ind)  -nan(ind)  -nan(ind)  -nan(ind)  -nan(ind)  -nan(ind)
  C25                     1.00   -nan(ind)  -nan(ind)  -nan(ind)  -nan(ind)  -nan(ind)  -nan(ind)  -nan(ind)  -nan(ind)  -nan(ind)
  C26                     1.53   -nan(ind)  -nan(ind)  -nan(ind)  -nan(ind)  -nan(ind)  -nan(ind)  -nan(ind)  -nan(ind)  -nan(ind)
  C27                     1.00   -nan(ind)  -nan(ind)  -nan(ind)  -nan(ind)  -nan(ind)  -nan(ind)  -nan(ind)  -nan(ind)  -nan(ind)
  C28                     1.00   -nan(ind)  -nan(ind)  -nan(ind)  -nan(ind)  -nan(ind)  -nan(ind)  -nan(ind)  -nan(ind)  -nan(ind)
  C29                     1.00   -nan(ind)  -nan(ind)  -nan(ind)  -nan(ind)  -nan(ind)  -nan(ind)  -nan(ind)  -nan(ind)  -nan(ind)
  C3                      1.00   -nan(ind)  -nan(ind)  -nan(ind)  -nan(ind)  -nan(ind)  -nan(ind)  -nan(ind)  -nan(ind)  -nan(ind)
  C30                     1.00   -nan(ind)  -nan(ind)  -nan(ind)  -nan(ind)  -nan(ind)  -nan(ind)  -nan(ind)  -nan(ind)  -nan(ind)
  C31                     2.57   -nan(ind)  -nan(ind)  -nan(ind)  -nan(ind)  -nan(ind)  -nan(ind)  -nan(ind)  -nan(ind)  -nan(ind)
  C32                     1.00   -nan(ind)  -nan(ind)  -nan(ind)  -nan(ind)  -nan(ind)  -nan(ind)  -nan(ind)  -nan(ind)  -nan(ind)
  C33                     1.00   -nan(ind)  -nan(ind)  -nan(ind)  -nan(ind)  -nan(ind)  -nan(ind)  -nan(ind)  -nan(ind)  -nan(ind)
  C34                     1.00   -nan(ind)  -nan(ind)  -nan(ind)  -nan(ind)  -nan(ind)  -nan(ind)  -nan(ind)  -nan(ind)  -nan(ind)
  C35                     1.00   -nan(ind)  -nan(ind)  -nan(ind)  -nan(ind)  -nan(ind)  -nan(ind)  -nan(ind)  -nan(ind)  -nan(ind)
  C36                     1.00   -nan(ind)  -nan(ind)  -nan(ind)  -nan(ind)  -nan(ind)  -nan(ind)  -nan(ind)  -nan(ind)  -nan(ind)
  C37                     1.00   -nan(ind)  -nan(ind)  -nan(ind)  -nan(ind)  -nan(ind)  -nan(ind)  -nan(ind)  -nan(ind)  -nan(ind)
  C38                     1.00   -nan(ind)  -nan(ind)  -nan(ind)  -nan(ind)  -nan(ind)  -nan(ind)  -nan(ind)  -nan(ind)  -nan(ind)
  C39                     1.00   -nan(ind)  -nan(ind)  -nan(ind)  -nan(ind)  -nan(ind)  -nan(ind)  -nan(ind)  -nan(ind)  -nan(ind)
  C4                      1.00   -nan(ind)  -nan(ind)  -nan(ind)  -nan(ind)  -nan(ind)  -nan(ind)  -nan(ind)  -nan(ind)  -nan(ind)
  C40                     1.00   -nan(ind)  -nan(ind)  -nan(ind)  -nan(ind)  -nan(ind)  -nan(ind)  -nan(ind)  -nan(ind)  -nan(ind)
  C41                     1.00   -nan(ind)  -nan(ind)  -nan(ind)  -nan(ind)  -nan(ind)  -nan(ind)  -nan(ind)  -nan(ind)  -nan(ind)
  C42                     2.55   -nan(ind)  -nan(ind)  -nan(ind)  -nan(ind)  -nan(ind)  -nan(ind)  -nan(ind)  -nan(ind)  -nan(ind)
  C43                     1.00   -nan(ind)  -nan(ind)  -nan(ind)  -nan(ind)  -nan(ind)  -nan(ind)  -nan(ind)  -nan(ind)  -nan(ind)
  C44                     1.00   -nan(ind)  -nan(ind)  -nan(ind)  -nan(ind)  -nan(ind)  -nan(ind)  -nan(ind)  -nan(ind)  -nan(ind)
  C45                     1.00   -nan(ind)  -nan(ind)  -nan(ind)  -nan(ind)  -nan(ind)  -nan(ind)  -nan(ind)  -nan(ind)  -nan(ind)
  C46                     1.00   -nan(ind)  -nan(ind)  -nan(ind)  -nan(ind)  -nan(ind)  -nan(ind)  -nan(ind)  -nan(ind)  -nan(ind)
  C47                     1.00   -nan(ind)  -nan(ind)  -nan(ind)  -nan(ind)  -nan(ind)  -nan(ind)  -nan(ind)  -nan(ind)  -nan(ind)
  C48                     1.00   -nan(ind)  -nan(ind)  -nan(ind)  -nan(ind)  -nan(ind)  -nan(ind)  -nan(ind)  -nan(ind)  -nan(ind)
  C5                      1.00   -nan(ind)  -nan(ind)  -nan(ind)  -nan(ind)  -nan(ind)  -nan(ind)  -nan(ind)  -nan(ind)  -nan(ind)
  C6                      1.00   -nan(ind)  -nan(ind)  -nan(ind)  -nan(ind)  -nan(ind)  -nan(ind)  -nan(ind)  -nan(ind)  -nan(ind)
  C7                      1.00   -nan(ind)  -nan(ind)  -nan(ind)  -nan(ind)  -nan(ind)  -nan(ind)  -nan(ind)  -nan(ind)  -nan(ind)
  C8                      1.00   -nan(ind)  -nan(ind)  -nan(ind)  -nan(ind)  -nan(ind)  -nan(ind)  -nan(ind)  -nan(ind)  -nan(ind)
  C9                      1.00   -nan(ind)  -nan(ind)  -nan(ind)  -nan(ind)  -nan(ind)  -nan(ind)  -nan(ind)  -nan(ind)  -nan(ind)
  
  
  *************************
  Conduit Surcharge Summary
  *************************
  
  No conduits were surcharged.
  
  
  ***************
  Pumping Summary
  ***************
  
  ---------------------------------------------------------------------------------------------------------
                                                  Min       Avg       Max     Total     Power    % Time Off
                        Percent   Number of      Flow      Flow      Flow    Volume     Usage    Pump Curve
  Pump                 Utilized   Start-Ups       GPM       GPM       GPM  10^6 gal     Kw-hr    Low   High
  ---------------------------------------------------------------------------------------------------------
  PUMP1                -nan(ind)           0      0.00      0.00      0.00     0.000      0.00    0.0    0.0
  PUMP2                -nan(ind)           0      0.00      0.00      0.00     0.000      0.00    0.0    0.0
  PUMP3                -nan(ind)           0      0.00      0.00      0.00     0.000      0.00    0.0    0.0
  PUMP4                -nan(ind)           0      0.00      0.00      0.00     0.000      0.00    0.0    0.0
  PUMP5                -nan(ind)           0      0.00      0.00      0.00     0.000      0.00    0.0    0.0
  PUMP6                -nan(ind)           0      0.00      0.00      0.00     0.000      0.00    0.0    0.0
  

  Analysis begun on:  Sat Nov 30 08:10:07 2019
  Analysis ended on:  Sat Nov 30 08:10:07 2019
  Total elapsed time: < 1 sec