
  EPA STORM WATER MANAGEMENT MODEL - VERSION 5.1 (Build 5.1.013)
  --------------------------------------------------------------

  WARNING 04: minimum elevation drop used for Conduit 780
  WARNING 04: minimum elevation drop used for Conduit 781
  WARNING 04: minimum elevation drop used for Conduit 782
  WARNING 04: minimum elevation drop used for Conduit 783
  WARNING 04: minimum elevation drop used for Conduit 784
  WARNING 04: minimum elevation drop used for Conduit 797
  
  *********************************************************
  NOTE: The summary statistics displayed in this report are
  based on results found at every computational time step,  
  not just on results from each reporting time step.
  *********************************************************
  
  ****************
  Analysis Options
  ****************
  Flow Units ............... CFS
  Process Models:
    Rainfall/Runoff ........ NO
    RDII ................... NO
    Snowmelt ............... NO
    Groundwater ............ NO
    Flow Routing ........... YES
    Ponding Allowed ........ YES
    Water Quality .......... NO
  Flow Routing Method ...... DYNWAVE
  Surcharge Method ......... EXTRAN
  Starting Date ............ 07/23/2010 17:40:00
  Ending Date .............. 07/25/2010 20:00:00
  Antecedent Dry Days ...... 5.0
  Report Time Step ......... 00:01:00
  Routing Time Step ........ 1.00 sec
  Variable Time Step ....... YES
  Maximum Trials ........... 8
  Number of Threads ........ 1
  Head Tolerance ........... 0.005000 ft
  
  
  **************************        Volume        Volume
  Flow Routing Continuity        acre-feet      10^6 gal
  **************************     ---------     ---------
  Dry Weather Inflow .......         0.000         0.000
  Wet Weather Inflow .......         0.000         0.000
  Groundwater Inflow .......         0.000         0.000
  RDII Inflow ..............         0.000         0.000
  External Inflow ..........      6699.664      2183.186
  External Outflow .........         0.000         0.000
  Flooding Loss ............         0.000         0.000
  Evaporation Loss .........         0.000         0.000
  Exfiltration Loss ........         0.000         0.000
  Initial Stored Volume ....         0.001         0.000
  Final Stored Volume ......      6622.747      2158.121
  Continuity Error (%) .....         1.148
  
  
  *************************
  Highest Continuity Errors
  *************************
  Node CALUMET_PS (88.39%)
  Node STO-335 (78.78%)
  Node 333 (34.44%)
  Node 298 (25.87%)
  Node 275 (22.58%)
  
  
  ***************************
  Time-Step Critical Elements
  ***************************
  Link 607 (18.26%)
  
  
  ********************************
  Highest Flow Instability Indexes
  ********************************
  Link 290 (73)
  Link 207 (72)
  Link 206 (69)
  Link 600 (61)
  Link 733 (60)
  
  
  *************************
  Routing Time Step Summary
  *************************
  Minimum Time Step           :     0.50 sec
  Average Time Step           :     0.97 sec
  Maximum Time Step           :     1.00 sec
  Percent in Steady State     :    -0.00
  Average Iterations per Step :     5.41
  Percent Not Converging      :    45.27
  
  
  ******************
  Node Depth Summary
  ******************
  
  ---------------------------------------------------------------------------------
                                 Average  Maximum  Maximum  Time of Max    Reported
                                   Depth    Depth      HGL   Occurrence   Max Depth
  Node                 Type         Feet     Feet     Feet  days hr:min        Feet
  ---------------------------------------------------------------------------------
  105                  JUNCTION    57.82    90.18  -218.82     2  02:19       90.16
  126                  JUNCTION    59.69    92.50  -218.77     2  02:18       92.40
  137                  JUNCTION     0.00     0.00  -193.85     0  00:00        0.00
  170                  JUNCTION    63.33    96.44  -218.80     2  02:19       96.42
  221                  JUNCTION    32.80    59.64  -218.77     2  02:19       59.61
  230                  JUNCTION    66.55   120.37  -198.18     0  09:44       99.72
  266                  JUNCTION    67.20   100.29  -218.81     2  02:19      100.28
  272                  JUNCTION    67.77   100.81  -218.81     2  02:19      100.79
  275                  JUNCTION    61.79    94.43  -218.80     2  02:19       94.38
  280                  JUNCTION    68.54   101.51  -218.80     2  02:18      101.48
  282                  JUNCTION    61.54    94.13  -218.82     2  02:19       94.12
  288                  JUNCTION    66.72   100.00  -218.78     2  02:20      100.00
  289                  JUNCTION    67.14   100.01  -218.78     2  02:19       99.96
  291                  JUNCTION    66.98    99.81  -218.79     2  02:18       99.79
  293                  JUNCTION    53.94    85.48  -218.79     2  02:19       85.45
  294                  JUNCTION    55.00    86.57  -218.80     2  02:19       86.53
  296                  JUNCTION    68.57   101.59  -218.78     2  02:19      101.58
  298                  JUNCTION    49.87    80.76  -218.79     2  02:19       80.72
  324                  JUNCTION    62.73    94.93  -218.79     2  02:19       94.92
  333                  JUNCTION    48.41    79.02  -218.80     2  02:19       78.99
  353                  JUNCTION    57.85    89.85  -218.77     2  02:19       89.79
  363                  JUNCTION    69.86   102.96  -218.80     2  02:19      102.93
  364                  JUNCTION    58.50    90.57  -218.79     2  02:19       90.56
  374                  JUNCTION   262.16   353.03    55.97     1  21:12      353.00
  394                  JUNCTION     0.00     0.00  -206.12     0  00:00        0.00
  400                  JUNCTION     3.86     7.90  -218.71     2  02:20        7.90
  CRFD_IG_DS           JUNCTION     3.76     7.43  -218.71     2  02:20        7.43
  CRFD_IG_US           JUNCTION    16.37    79.07  -146.93     0  08:05       59.55
  417                  JUNCTION    16.20    78.89  -146.93     0  08:05       59.45
  424                  JUNCTION    15.99    78.62  -146.98     0  08:05       59.51
  430                  JUNCTION    21.44    42.91  -218.69     2  02:18       42.88
  CSRS                 JUNCTION    15.38    77.74  -147.24     0  08:05       60.18
  450                  JUNCTION     6.37    56.74  -143.73     0  08:05       37.98
  463                  JUNCTION   261.04   351.76    55.95     1  19:13      351.76
  497                  JUNCTION   259.06   349.53    55.93     1  20:52      349.53
  514                  JUNCTION    71.57   104.76  -218.80     2  02:19      104.74
  522                  JUNCTION    49.39    79.88  -218.78     2  02:19       79.83
  554                  JUNCTION    72.66   105.91  -218.80     2  02:19      105.89
  558                  JUNCTION    68.62   101.64  -218.79     2  02:19      101.61
  56                   JUNCTION     1.15     5.82  -142.41     1  04:55        5.82
  CALUMET_PS           JUNCTION    72.90   106.18  -218.79     2  02:19      106.16
  61                   JUNCTION     1.07     3.01  -265.85     0  13:55        3.01
  620                  JUNCTION   253.68   343.28    55.87     1  20:12      343.28
  623                  JUNCTION   241.66   329.54    55.95     1  20:12      329.54
  68                   JUNCTION     0.00     0.00  -285.65     0  13:55        0.00
  684                  JUNCTION     3.36    15.23  -169.83     0  09:34       15.22
  685                  JUNCTION     0.79     7.50  -169.16     0  09:07        7.32
  687                  JUNCTION     1.38     6.81  -169.80     0  09:34        6.80
  69                   JUNCTION    55.55    87.96  -218.82     2  02:18       87.92
  700                  JUNCTION     2.72    11.47  -169.71     0  09:37       11.47
  710                  JUNCTION     2.48     9.00  -169.55     0  09:36        9.00
  722                  JUNCTION     2.27     7.02  -168.51     0  07:49        7.02
  731                  JUNCTION     2.22     6.91  -166.67     0  07:46        6.91
  734                  JUNCTION     0.82     2.46  -163.34     0  07:45        2.46
  765                  JUNCTION     2.05     6.73  -166.67     0  07:46        6.73
  769                  JUNCTION   244.74   332.67    55.87     1  21:02      332.67
  771                  JUNCTION   233.11   319.08    55.89     1  21:23      319.08
  84                   JUNCTION    56.62    89.11  -218.80     2  02:19       89.06
  91                   JUNCTION    58.17    90.80  -218.82     2  02:19       90.79
  CDS-10               JUNCTION    33.04    58.16  -218.72     2  02:19       58.12
  CDS-105th            JUNCTION     2.74     8.98  -156.80     0  07:45        8.98
  CDS-107th            JUNCTION     2.27     7.01  -168.44     0  07:49        7.01
  CDS-11               JUNCTION    35.67    66.26  -214.01     0  13:13       61.51
  CDS-110th            JUNCTION     2.47     8.94  -169.54     0  09:35        8.94
  CDS-112th            JUNCTION     2.71    11.40  -169.71     0  09:36       11.40
  CDS-116th            JUNCTION     1.25     4.36  -168.95     0  12:48        4.36
  CDS-117th            JUNCTION     3.39    15.61  -169.85     0  09:35       15.61
  CDS-12               JUNCTION    49.90    79.27  -218.76     2  02:19       79.26
  CDS-127th            JUNCTION     5.36   207.31    10.86     0  08:05       45.98
  CDS-13               JUNCTION    67.06    99.96  -218.80     2  02:19       99.95
  CDS-14               JUNCTION    59.72    91.91  -218.79     2  02:19       91.89
  CDS-15-1             JUNCTION    59.07   105.15  -204.10     0  08:24       90.46
  CDS-15-2             JUNCTION    68.76   101.78  -218.80     2  02:19      101.74
  CDS-16               JUNCTION    58.33    90.40  -218.77     2  02:19       90.36
  CDS-17               JUNCTION    57.18    89.04  -218.80     2  02:19       89.02
  CDS-18               JUNCTION    60.14   201.16  -110.17     0  10:37      109.88
  CDS-19               JUNCTION    56.27    88.07  -218.80     2  02:19       88.03
  CDS-2                JUNCTION     6.22    14.96  -218.71     2  02:20       14.96
  CDS-20               JUNCTION    53.98    85.38  -218.79     2  02:19       85.34
  CDS-21               JUNCTION    39.72    68.22  -218.78     2  02:19       68.17
  CDS-22               JUNCTION    39.16    67.53  -218.79     2  02:19       67.48
  CDS-23               JUNCTION    35.88   110.50  -171.85     0  13:00       63.50
  CDS-24               JUNCTION    32.12    58.75  -218.77     2  02:19       58.68
  CDS-25               JUNCTION    49.02    79.42  -218.80     2  02:18       79.41
  CDS-26               JUNCTION   258.54   348.96    55.95     1  20:52      348.94
  CDS-28               JUNCTION   241.63   329.50    55.97     1  20:13      329.49
  CDS-32               JUNCTION   232.83   318.68    55.92     1  21:22      318.66
  CDS-33               JUNCTION   237.44   324.07    55.93     1  20:01      324.05
  CDS-34               JUNCTION   238.37   325.07    55.94     1  20:03      325.05
  CDS-36               JUNCTION   234.94   321.27    55.92     1  19:23      321.24
  CDS-39               JUNCTION     0.93     3.43  -137.66     1  04:55        3.43
  CDS-4                JUNCTION    11.33    27.06  -218.67     2  02:18       27.03
  CDS-41               JUNCTION     1.21     6.11  -146.77     0  13:42        6.11
  CDS-42               JUNCTION     1.61     7.99  -148.46     0  13:43        7.99
  CDS-43               JUNCTION     1.63     8.06  -152.31     0  13:46        8.06
  CDS-45               JUNCTION     1.74     8.54  -163.14     0  13:55        8.54
  CDS-47               JUNCTION    60.91    93.89  -218.76     2  02:19       93.84
  CDS-48               JUNCTION    59.10    91.82  -218.81     2  02:19       91.78
  CDS-5                JUNCTION    12.61    29.29  -218.67     2  02:19       29.24
  CDS-51               JUNCTION     1.34     6.26  -171.25     1  05:06        6.26
  CDS-52               JUNCTION     1.15     5.73  -157.34     1  05:06        5.73
  CDS-53               JUNCTION     1.15     5.78  -136.82     1  04:53        5.78
  CDS-55               JUNCTION     1.12     5.54  -131.87     1  04:54        5.54
  CDS-57               JUNCTION     0.67     2.51  -263.75     0  13:31        2.51
  CDS-59               JUNCTION    53.40    85.67  -218.83     2  02:19       85.65
  CDS-6                JUNCTION    13.54    31.09  -218.67     2  02:19       31.04
  CDS-7                JUNCTION    20.70    41.75  -218.69     2  02:19       41.73
  CDS-8                JUNCTION    24.43    46.85  -218.64     2  02:20       46.85
  CDS-9                JUNCTION    24.40    46.98  -218.63     2  02:19       46.83
  CDS-C1               JUNCTION    40.65    69.87  -218.84     2  02:19       69.87
  CDS-CentralPark      JUNCTION     2.51     9.22  -151.42     0  07:43        9.22
  CDS-Hamlin           JUNCTION     2.52     9.14  -154.18     0  07:44        9.14
  CDS-Homan            JUNCTION     2.51     9.29  -148.77     0  07:42        9.29
  CDS-Lawndale         JUNCTION     2.51     9.18  -152.80     0  07:44        9.18
  CDS-Spaulding        JUNCTION     2.25     7.54  -146.54     0  07:39        7.54
  CDS-Springfield      JUNCTION     2.55     9.07  -155.57     0  07:45        9.07
  CDWF-27              JUNCTION   256.04   346.07    55.91     1  20:51      346.04
  CDWF-30              JUNCTION   250.35   339.36    55.88     1  23:29      339.35
  DUMMY_OUTFALL        OUTFALL      0.00     0.00     0.00     0  00:00        0.00
  RES                  STORAGE     47.16    78.63  -218.87     2  02:20       78.63
  STO-334              STORAGE     48.39    78.98  -218.82     2  02:19       78.97
  STO-335              STORAGE    262.77   353.71    55.99     1  18:51      353.66
  
  
  *******************
  Node Inflow Summary
  *******************
  
  -------------------------------------------------------------------------------------------------
                                  Maximum  Maximum                  Lateral       Total        Flow
                                  Lateral    Total  Time of Max      Inflow      Inflow     Balance
                                   Inflow   Inflow   Occurrence      Volume      Volume       Error
  Node                 Type           CFS      CFS  days hr:min    10^6 gal    10^6 gal     Percent
  -------------------------------------------------------------------------------------------------
  105                  JUNCTION      0.00  2063.30     0  13:59           0         317       0.546
  126                  JUNCTION      0.00  4149.70     0  13:39           0    1.34e+03       0.178
  137                  JUNCTION      0.00     0.00     0  00:00           0           0       0.000 gal
  170                  JUNCTION      0.00  4110.27     0  13:39           0    1.36e+03       1.277
  221                  JUNCTION      0.00   702.06     1  05:15           0         105       2.598
  230                  JUNCTION      0.00  4110.24     0  13:39           0    1.38e+03       1.284
  266                  JUNCTION      0.00  4110.38     0  13:39           0    1.46e+03       2.339
  272                  JUNCTION      0.00  4022.44     0  08:05           0    1.22e+03       0.103
  275                  JUNCTION      0.00   566.77     0  08:23           0        1.97      29.165
  280                  JUNCTION      0.00  3997.77     0  08:05           0    1.24e+03       0.168
  282                  JUNCTION      0.00   435.37     0  08:23           0        1.69      34.181
  288                  JUNCTION      0.00   134.05     0  08:23           0       0.837      20.383
  289                  JUNCTION      0.00  2883.75     0  08:05           0    1.01e+03       0.079
  291                  JUNCTION      0.00  2883.51     0  08:05           0    1.02e+03       0.238
  293                  JUNCTION      0.00    38.19     0  13:00           0       0.443     215.713
  294                  JUNCTION      0.00   944.73     0  08:31           0         129       8.269
  296                  JUNCTION      0.00  1245.82     0  08:24           0         240       0.592
  298                  JUNCTION      0.00   527.18     0  10:37           0        17.5      34.903
  324                  JUNCTION      0.00  2891.13     0  08:05           0    1.02e+03       0.435
  333                  JUNCTION      0.00   432.69     0  09:11           0        9.85      52.532
  353                  JUNCTION      0.00    78.53     0  07:31           0        8.74       1.363
  363                  JUNCTION      0.00  1241.38     0  08:24           0         241       3.067
  364                  JUNCTION      0.00    97.50     0  07:28           0        10.4       0.724
  374                  JUNCTION      0.00   915.41     0  11:17           0        29.2      13.895
  394                  JUNCTION      0.00     0.00     0  00:00           0           0       0.000 gal
  400                  JUNCTION      0.00   843.67     0  08:05           0         431       0.270
  CRFD_IG_DS           JUNCTION     82.16   883.53     0  08:05        86.4         431       0.018
  CRFD_IG_US           JUNCTION     94.01   813.57     0  08:05        86.5         344       0.017
  417                  JUNCTION      0.00   840.10     0  08:05           0         258       0.028
  424                  JUNCTION      0.00   939.84     0  08:05           0         258       0.054
  430                  JUNCTION      0.00  1303.83     0  14:08           0         671       0.333
  CSRS                 JUNCTION     46.69  1432.33     1  04:46        54.3         259      -0.193
  450                  JUNCTION      0.00  1051.52     1  04:45           0         205       0.056
  463                  JUNCTION      0.00   912.75     0  11:17           0        49.1      12.887
  497                  JUNCTION      0.00   904.95     0  11:17           0        53.7       8.802
  514                  JUNCTION      0.00  1171.22     0  08:24           0         231       3.719
  522                  JUNCTION      0.00   105.88     0  07:53           0        11.4       8.495
  554                  JUNCTION      0.00  1000.64     0  08:24           0         209       1.957
  558                  JUNCTION      0.00   987.71     0  08:24           0         207       1.183
  56                   JUNCTION      0.00   700.68     1  04:53           0        86.3      -0.111
  CALUMET_PS           JUNCTION      0.00    46.69     0  03:04           0        1.07     761.367
  61                   JUNCTION      0.00    80.42     0  13:32           0        9.47       1.516
  620                  JUNCTION      0.00  1170.79     0  07:20           0         105      18.622
  623                  JUNCTION      0.00   213.59     0  07:53           0        17.5      17.868
  68                   JUNCTION      0.00    59.58     0  13:55           0        9.33      -0.000
  684                  JUNCTION      0.00  1075.49     0  08:17           0         204       0.051
  685                  JUNCTION      0.00   269.81     0  08:22           0        36.1      -0.139
  687                  JUNCTION      0.00   159.80     0  07:56           0        36.1       0.082
  69                   JUNCTION      0.00  6214.94     0  13:55           0    1.65e+03       0.681
  700                  JUNCTION      0.00   826.22     0  07:52           0         168      -0.016
  710                  JUNCTION      0.00   827.31     0  07:50           0         168      -0.009
  722                  JUNCTION      0.00   809.20     0  07:47           0         165      -0.005
  731                  JUNCTION      0.00   778.26     0  07:45           0         161       0.005
  734                  JUNCTION      0.00   778.26     0  07:45           0         161       0.001
  765                  JUNCTION      0.00     2.12     0  00:36           0      0.0847       1.428
  769                  JUNCTION      0.00  1260.97     0  07:30           0         177      19.857
  771                  JUNCTION      0.00   335.20     0  07:29           0        29.5      10.118
  84                   JUNCTION      0.00  6155.52     0  13:55           0    1.65e+03       0.584
  91                   JUNCTION      0.00  6155.46     0  13:55           0    1.66e+03       0.684
  CDS-10               JUNCTION    810.62  2195.82     0  08:02         223         920       0.746
  CDS-105th            JUNCTION      0.00   778.27     0  07:45           0         161       0.005
  CDS-107th            JUNCTION     32.73   809.73     0  07:47        3.71         165       0.020
  CDS-11               JUNCTION    305.37  2497.42     0  08:03          45         958       0.954
  CDS-110th            JUNCTION     19.91   828.02     0  07:49        3.18         168       0.040
  CDS-112th            JUNCTION      0.00   827.18     0  07:51           0         168       0.040
  CDS-116th            JUNCTION    159.83   159.83     0  07:54        36.1        36.1      -0.084
  CDS-117th            JUNCTION      0.00   981.37     0  07:57           0         204      -0.091
  CDS-12               JUNCTION    375.94  2866.25     0  08:04        63.4    1.01e+03       1.301
  CDS-127th            JUNCTION      0.00   976.38     0  08:02           0         204       0.217
  CDS-13               JUNCTION    968.13   968.13     0  08:04         208         208       0.954
  CDS-14               JUNCTION     80.08    80.08     0  07:33        11.3        11.3       3.872
  CDS-15-1             JUNCTION    178.52  2996.08     0  08:03        27.4    1.03e+03       0.714
  CDS-15-2             JUNCTION      0.00  1245.51     0  08:24           0         240       1.412
  CDS-16               JUNCTION     21.30    98.80     0  07:28        1.78        10.4       0.604
  CDS-17               JUNCTION     74.80    74.80     1  04:36         8.8         8.8       0.824
  CDS-18               JUNCTION    309.39  2315.16     0  08:24         165         314      14.240
  CDS-19               JUNCTION      0.00  1195.67     0  08:30           0         133      16.183
  CDS-2                JUNCTION     74.68   804.55     0  13:36        41.2         471       1.339
  CDS-20               JUNCTION     37.91   757.99     1  05:15        3.09         115       4.337
  CDS-21               JUNCTION      0.00   751.59     1  05:15           0         113       1.665
  CDS-22               JUNCTION    160.22   751.54     1  05:15        16.3         115       2.411
  CDS-23               JUNCTION      7.80   702.05     1  05:15       0.419         103       4.618
  CDS-24               JUNCTION    702.03   702.03     1  05:15         105         105       0.475
  CDS-25               JUNCTION     81.63    81.63     0  07:27        11.3        11.3       0.257
  CDS-26               JUNCTION     56.10   896.60     0  11:17        11.2        60.7      11.930
  CDS-28               JUNCTION     87.03   134.37     0  11:17        7.91        7.96       1.569
  CDS-32               JUNCTION    335.19   335.19     0  07:29        23.4        23.4       1.493
  CDS-33               JUNCTION    160.44   490.98     0  10:51        11.8        37.2      23.468
  CDS-34               JUNCTION    598.28   931.06     0  07:20         139         170      10.127
  CDS-36               JUNCTION    214.18   553.31     0  11:16        21.7        24.3      27.186
  CDS-39               JUNCTION    245.88   245.88     1  04:51        53.5        53.5      -0.208
  CDS-4                JUNCTION    161.59   963.85     0  13:46          81         546       1.255
  CDS-41               JUNCTION    539.14   781.84     0  13:39        51.4         105       0.100
  CDS-42               JUNCTION    476.61  1251.93     0  13:42        76.1         181      -0.009
  CDS-43               JUNCTION     28.47  1275.99     0  13:43        2.22         183      -0.085
  CDS-45               JUNCTION    155.45  1424.38     0  13:46        15.5         199       0.090
  CDS-47               JUNCTION     38.29  4148.31     0  13:39        5.37    1.35e+03       0.646
  CDS-48               JUNCTION     22.69  4167.04     0  13:39        11.7    1.35e+03       0.644
  CDS-5                JUNCTION    197.05  1155.21     1  05:26         118         657       0.268
  CDS-51               JUNCTION    307.47   837.72     1  04:56        23.5         110      -0.047
  CDS-52               JUNCTION      0.00   702.09     1  04:58           0        86.4       0.333
  CDS-53               JUNCTION     52.50   701.57     1  04:51        2.83        86.3      -0.019
  CDS-55               JUNCTION    659.96   659.96     1  04:53        83.5        83.5      -0.012
  CDS-57               JUNCTION     79.66    79.66     0  13:33        9.46        9.46      -0.115
  CDS-59               JUNCTION      0.00  6214.95     0  13:55           0    1.64e+03       0.725
  CDS-6                JUNCTION     13.62  1166.52     0  13:43       0.815         656       0.805
  CDS-7                JUNCTION    171.27  1250.89     0  13:32        25.2         676       0.825
  CDS-8                JUNCTION     90.70  1285.21     0  14:22        14.6         683       0.273
  CDS-9                JUNCTION    148.99  1391.54     0  08:01        20.6         702       0.713
  CDS-C1               JUNCTION     89.09  2062.91     0  13:58        8.98         317       0.091
  CDS-CentralPark      JUNCTION      0.36   778.45     0  07:41     0.00905         161       0.017
  CDS-Hamlin           JUNCTION      0.16   776.91     0  07:43    0.000708         161       0.010
  CDS-Homan            JUNCTION    200.35   782.02     0  07:37        33.5         161       0.030
  CDS-Lawndale         JUNCTION      0.00   777.31     0  07:42           0         161       0.011
  CDS-Spaulding        JUNCTION    590.92   590.92     0  07:32         128         128       0.012
  CDS-Springfield      JUNCTION      2.11   778.32     0  07:44      0.0911         161       0.011
  CDWF-27              JUNCTION      0.00   878.87     0  07:01           0        62.8      19.924
  CDWF-30              JUNCTION      0.00  1245.70     0  07:39           0         112      21.752
  DUMMY_OUTFALL        OUTFALL       0.00     0.00     0  00:00           0           0       0.000 gal
  RES                  STORAGE       0.00  6214.93     0  13:55           0    1.62e+03       0.903
  STO-334              STORAGE       0.00   195.94     0  10:45           0        2.17       9.216
  STO-335              STORAGE       0.00   916.76     0  11:17           0        9.92     371.300
  
  
  **********************
  Node Surcharge Summary
  **********************
  
  Surcharging occurs when water rises above the top of the highest conduit.
  ---------------------------------------------------------------------
                                               Max. Height   Min. Depth
                                   Hours       Above Crown    Below Rim
  Node                 Type      Surcharged           Feet         Feet
  ---------------------------------------------------------------------
  105                  JUNCTION       42.19         74.183      218.817
  126                  JUNCTION       41.20         62.332      218.775
  170                  JUNCTION       41.44         63.686      218.797
  221                  JUNCTION       37.32         44.476      218.767
  230                  JUNCTION       41.70         86.890      198.183
  266                  JUNCTION       41.94         69.577      218.806
  272                  JUNCTION       42.68         79.557      218.813
  275                  JUNCTION       42.26         73.181      218.799
  280                  JUNCTION       42.70         79.357      218.804
  282                  JUNCTION       42.24         72.884      218.816
  288                  JUNCTION       42.62         78.750      218.784
  289                  JUNCTION       42.66         78.757      218.777
  291                  JUNCTION       42.64         78.565      218.785
  293                  JUNCTION       41.21         60.477      218.787
  294                  JUNCTION       39.97         56.370      218.798
  296                  JUNCTION       42.77         80.343      218.777
  298                  JUNCTION       39.90         55.762      218.788
  324                  JUNCTION       42.39         73.675      218.795
  333                  JUNCTION       39.49         54.017      218.801
  353                  JUNCTION       42.82         80.845      218.775
  363                  JUNCTION       42.88         81.708      218.800
  364                  JUNCTION       42.87         81.574      218.786
  374                  JUNCTION       42.61        328.026        0.000
  CRFD_IG_US           JUNCTION       12.35         57.824      146.926
  417                  JUNCTION       12.34         57.636      146.932
  424                  JUNCTION       12.34         57.374      146.982
  430                  JUNCTION       22.15         21.657      218.693
  CSRS                 JUNCTION        7.53         36.576      147.241
  450                  JUNCTION        7.41         39.905      143.732
  463                  JUNCTION       42.53        326.760        0.000
  497                  JUNCTION       42.37        324.529        0.000
  514                  JUNCTION       42.77         79.833      218.797
  522                  JUNCTION       42.15         70.878      218.782
  554                  JUNCTION       43.10         84.557      218.799
  558                  JUNCTION       42.81         80.301      218.789
  CALUMET_PS           JUNCTION       43.14         84.927      218.793
  620                  JUNCTION       41.63        318.285        0.000
  623                  JUNCTION       40.74        314.542        0.000
  69                   JUNCTION       39.55         56.662      218.821
  769                  JUNCTION       39.61        307.662        0.000
  771                  JUNCTION       39.35        304.082        0.000
  84                   JUNCTION       39.90         57.814      218.799
  91                   JUNCTION       40.33         59.627      218.815
  CDS-10               JUNCTION       37.15         36.906      214.718
  CDS-11               JUNCTION       37.48         45.008      211.262
  CDS-12               JUNCTION       41.36         58.018      207.764
  CDS-127th            JUNCTION        6.00        190.474       49.142
  CDS-13               JUNCTION       42.68         78.707      278.803
  CDS-14               JUNCTION       42.99         82.913      217.887
  CDS-15-1             JUNCTION       42.16         83.897      201.993
  CDS-15-2             JUNCTION       42.78         80.533      218.485
  CDS-16               JUNCTION       42.86         81.403      213.915
  CDS-17               JUNCTION       42.77         80.045      219.235
  CDS-18               JUNCTION       41.35        170.996      108.177
  CDS-19               JUNCTION       40.31         57.904      278.799
  CDS-20               JUNCTION       39.74         55.212      215.291
  CDS-21               JUNCTION       39.39         53.052      205.281
  CDS-22               JUNCTION       39.16         52.367      216.886
  CDS-23               JUNCTION       37.79         95.334      168.329
  CDS-24               JUNCTION       37.25         43.581      205.342
  CDS-25               JUNCTION       42.06         70.418      278.802
  CDS-26               JUNCTION       42.32        323.962        4.048
  CDS-28               JUNCTION       40.72        314.504        4.026
  CDS-32               JUNCTION       39.28        303.675        4.085
  CDS-33               JUNCTION       39.08        299.075        4.065
  CDS-34               JUNCTION       39.10        300.071        4.059
  CDS-36               JUNCTION       39.04        296.267        4.083
  CDS-4                JUNCTION       12.73          5.807      213.573
  CDS-47               JUNCTION       41.22         62.442      278.761
  CDS-48               JUNCTION       40.80         60.648      226.055
  CDS-5                JUNCTION       16.50          8.036      212.174
  CDS-59               JUNCTION       38.93         54.217      278.832
  CDS-6                JUNCTION       17.57          9.840      216.820
  CDS-7                JUNCTION       22.06         20.498      218.092
  CDS-8                JUNCTION       25.57         25.600      216.400
  CDS-9                JUNCTION       25.83         25.728      217.732
  CDWF-27              JUNCTION       41.92        321.069        4.086
  CDWF-30              JUNCTION       40.76        314.359        4.121
  STO-334              STORAGE        39.49         53.977      218.823
  STO-335              STORAGE        42.67        328.709        0.000
  
  
  *********************
  Node Flooding Summary
  *********************
  
  Flooding refers to all water that overflows a node, whether it ponds or not.
  --------------------------------------------------------------------------
                                                             Total   Maximum
                                 Maximum   Time of Max       Flood    Ponded
                        Hours       Rate    Occurrence      Volume     Depth
  Node                 Flooded       CFS   days hr:min    10^6 gal      Feet
  --------------------------------------------------------------------------
  374                    38.48    282.29      0  11:51      14.213    55.966
  463                    38.48    275.48      0  12:12      19.686    55.950
  497                    38.48    252.01      0  12:11      14.899    55.929
  620                    38.48    237.29      0  11:54      21.327    55.875
  623                    38.48    124.73      0  12:50       9.153    55.952
  769                    38.48    331.78      0  13:20      36.404    55.867
  771                    38.48     63.29      0  12:01       5.888    55.892
  
  
  **********************
  Storage Volume Summary
  **********************
  
  --------------------------------------------------------------------------------------------------
                         Average     Avg  Evap Exfil       Maximum     Max    Time of Max    Maximum
                          Volume    Pcnt  Pcnt  Pcnt        Volume    Pcnt     Occurrence    Outflow
  Storage Unit          1000 ft3    Full  Loss  Loss      1000 ft3    Full    days hr:min        CFS
  --------------------------------------------------------------------------------------------------
  RES                 120413.087      13     0     0    215295.809      23       2  02:20       0.00
  STO-334                 24.244      16     0     0        39.568      27       2  02:19     141.97
  STO-335                 46.241      77     0     0        59.842     100       0  11:51     139.91
  
  
  ***********************
  Outfall Loading Summary
  ***********************
  
  -----------------------------------------------------------
                         Flow       Avg       Max       Total
                         Freq      Flow      Flow      Volume
  Outfall Node           Pcnt       CFS       CFS    10^6 gal
  -----------------------------------------------------------
  DUMMY_OUTFALL          0.00      0.00      0.00       0.000
  -----------------------------------------------------------
  System                 0.00      0.00      0.00       0.000
  
  
  ********************
  Link Flow Summary
  ********************
  
  -----------------------------------------------------------------------------
                                 Maximum  Time of Max   Maximum    Max/    Max/
                                  |Flow|   Occurrence   |Veloc|    Full    Full
  Link                 Type          CFS  days hr:min    ft/sec    Flow   Depth
  -----------------------------------------------------------------------------
  197                  CONDUIT    912.75     0  11:17      4.26    0.16    1.00
  206                  CONDUIT    335.20     0  07:29      8.25    0.27    1.00
  207                  CONDUIT    180.54     0  11:17      5.69    0.22    1.00
  208                  CONDUIT    915.41     0  11:17      3.67    0.18    1.00
  217                  CONDUIT   1005.03     1  05:26     11.51    0.17    1.00
  218                  CONDUIT   1155.90     1  05:22     12.81    0.20    1.00
  219                  CONDUIT   1303.83     0  14:08     12.73    0.24    1.00
  220                  CONDUIT   1284.92     0  14:14     11.97    0.36    1.00
  221                  CONDUIT   2891.13     0  08:05     12.58    0.52    1.00
  222                  CONDUIT   2883.51     0  08:05      8.13    0.49    1.00
  234                  CONDUIT    904.95     0  11:17      4.21    0.17    1.00
  240                  CONDUIT   1245.82     0  08:24      4.26    0.50    1.00
  244                  CONDUIT      0.00     0  00:00      0.00    0.00    0.00
  247                  CONDUIT   6214.95     0  13:55      8.70    0.79    1.00
  249                  CONDUIT    751.59     1  05:15      5.56    0.50    1.00
  250                  CONDUIT    987.71     0  08:24      2.78    0.28    1.00
  251                  CONDUIT   6155.52     0  13:55      8.61    0.78    1.00
  256                  CONDUIT   4148.94     0  13:39      5.80    0.52    1.00
  259                  CONDUIT   2199.08     0  13:13     14.53    0.38    1.00
  261                  CONDUIT     80.42     0  13:32      5.30    0.14    0.26
  271                  CONDUIT   4149.70     0  13:39      5.81    0.53    1.00
  285                  CONDUIT   1265.01     0  14:22     12.00    0.21    1.00
  287                  CONDUIT   1245.51     0  08:24      4.12    0.50    1.00
  289                  CONDUIT   3997.57     0  08:05     11.27    0.96    1.00
  290                  CONDUIT    916.76     0  11:17      1.87    0.18    1.00
  294                  CONDUIT    999.63     0  08:24      2.82    0.08    1.00
  295                  CONDUIT    107.11     0  08:24      5.25    0.16    1.00
  296                  CONDUIT     78.53     0  07:31      4.67    0.14    1.00
  297                  CONDUIT   4022.95     0  08:05     11.34    0.95    1.00
  302                  CONDUIT    471.06     0  10:51      3.59    0.09    1.00
  305                  CONDUIT    566.77     0  08:23      1.60    0.02    1.00
  306                  CONDUIT    435.37     0  08:23      2.25    0.11    1.00
  307                  CONDUIT    134.05     0  08:23      2.04    0.00    1.00
  309                  CONDUIT   1177.23     0  08:24      4.03    0.47    1.00
  320                  CONDUIT    776.09     0  13:42      9.10    0.31    0.44
  321                  CONDUIT   1250.63     0  13:43     12.41    0.50    0.50
  329                  CONDUIT    981.37     0  07:57     10.03    0.46    0.92
  331                  CONDUIT    758.08     1  05:15      4.84    0.09    1.00
  343                  CONDUIT     46.69     0  03:04      1.17    0.02    1.00
  352                  CONDUIT   1244.82     0  08:24      4.81    0.31    1.00
  353                  CONDUIT   2883.75     0  08:05      8.13    0.71    1.00
  354                  CONDUIT   2883.72     0  08:05      8.13    0.71    1.00
  373                  CONDUIT     81.63     0  07:27      6.80    0.12    1.00
  418                  CONDUIT   1388.80     1  04:46      8.79    0.84    1.00
  426                  CONDUIT      2.12     0  00:36      0.61    0.00    0.41
  433                  CONDUIT    939.84     0  08:05      5.66    0.16    1.00
  482                  CONDUIT    840.10     0  08:05      4.85    0.14    1.00
  507                  CONDUIT    432.69     0  09:11      2.52    0.08    1.00
  577                  CONDUIT    778.26     0  07:45     20.85    0.12    0.45
  594                  CONDUIT    843.67     0  08:05     11.79    0.14    0.36
  597                  CONDUIT     77.60     0  07:28      4.07    0.13    1.00
  598                  CONDUIT     97.50     0  07:28      5.53    0.16    1.00
  599                  CONDUIT    501.62     0  09:06      1.87    0.04    1.00
  600                  CONDUIT     38.19     0  13:00      0.18    0.00    1.00
  601                  CONDUIT    944.73     0  08:31      4.69    0.12    1.00
  602                  CONDUIT    159.80     0  07:56      5.71    0.51    0.63
  603                  CONDUIT    420.22     0  08:17     11.07    0.13    0.94
  604                  CONDUIT    265.16     0  08:24     10.48    0.94    0.83
  607                  CONDUIT    778.26     0  07:45     16.14    1.09    0.54
  608                  CONDUIT    809.20     0  07:47      9.22    0.36    0.42
  609                  CONDUIT    827.31     0  07:50      9.27    0.37    0.53
  610                  CONDUIT    826.22     0  07:52      9.32    0.37    0.68
  613                  CONDUIT    751.56     1  05:15      6.50    0.51    1.00
  639                  CONDUIT   2063.30     0  13:59     10.26    0.11    1.00
  685                  CONDUIT   2063.13     0  13:59     10.26    2.41    1.00
  731                  CONDUIT    750.68     0  08:05      4.48    0.15    1.00
  733                  CONDUIT    195.94     0  10:45      2.08    0.06    1.00
  734                  DUMMY       59.58     0  13:55
  754                  CONDUIT      0.00     0  00:00      0.00    0.00    0.00
  756                  CONDUIT    974.91     0  08:05      8.12    0.44    1.00
  758                  CONDUIT    976.38     0  08:02      9.28    0.44    0.96
  759                  CONDUIT    825.68     0  07:54      8.75    0.37    0.79
  760                  CONDUIT    827.18     0  07:51      9.30    0.37    0.61
  761                  CONDUIT    808.89     0  07:49      9.14    0.36    0.46
  762                  CONDUIT    778.08     0  07:46      8.96    0.35    0.41
  763                  CONDUIT    778.27     0  07:45      9.83    1.07    0.86
  764                  CONDUIT    776.73     0  07:44      9.74    1.06    0.87
  765                  CONDUIT    776.91     0  07:43      9.70    1.06    0.87
  766                  CONDUIT    777.31     0  07:42      9.73    1.06    0.88
  768                  CONDUIT    778.27     0  07:40      9.81    1.07    0.88
  770                  CONDUIT    586.54     0  07:33      8.53    0.80    0.80
  771                  CONDUIT    739.06     0  09:23     11.03    0.13    0.54
  772                  CONDUIT    804.37     0  13:40     11.02    0.14    0.85
  773                  CONDUIT   1166.47     0  13:45     12.11    0.20    1.00
  774                  CONDUIT   1390.70     0  07:54     11.51    0.24    1.00
  775                  CONDUIT   2495.10     0  08:05     15.14    0.42    1.00
  776                  CONDUIT   2856.94     0  08:03     14.87    0.48    1.00
  777                  CONDUIT    244.26     1  04:55      7.67    0.10    0.30
  778                  CONDUIT   1271.68     0  13:46     12.52    0.51    0.52
  779                  CONDUIT   1374.05     0  13:55     13.27    0.54    0.51
  780                  CONDUIT   4110.24     0  13:39      5.75   26.30    1.00
  781                  CONDUIT   4110.27     0  13:39      5.75   26.78    1.00
  782                  CONDUIT   4110.30     0  13:39      5.75   26.23    1.00
  783                  CONDUIT   4166.84     0  13:39      5.83   23.73    1.00
  784                  CONDUIT   6155.36     0  13:55      8.61   37.13    1.00
  785                  CONDUIT   6214.93     0  13:55     10.03    0.52    1.00
  786                  CONDUIT     59.58     0  13:55      8.76    0.11    0.14
  787                  CONDUIT    811.73     1  05:06     11.52    0.32    0.38
  788                  CONDUIT    689.84     1  05:06     10.02    0.27    0.37
  789                  CONDUIT    702.09     1  04:58     11.04    0.28    0.36
  790                  CONDUIT    700.68     1  04:53     10.67    0.28    0.36
  791                  CONDUIT    659.67     1  04:54     10.37    0.26    0.35
  792                  CONDUIT   2117.82     0  08:24      3.14    0.26    1.00
  793                  CONDUIT   1195.67     0  08:30      2.77    0.15    1.00
  794                  CONDUIT    112.04     0  08:24      6.15    0.20    1.00
  796                  CONDUIT   1041.30     0  08:24      3.50    0.42    1.00
  797                  CONDUIT     98.45     0  07:21      3.35   10.80    1.00
  798                  CONDUIT    702.05     1  05:14      5.03    0.47    1.00
  799                  CONDUIT    702.05     1  05:15      6.24    0.47    1.00
  800                  CONDUIT    702.06     1  05:15      6.11    0.46    1.00
  801                  CONDUIT    864.60     0  11:17      4.69    0.17    1.00
  802                  CONDUIT    878.87     0  07:01      7.57    0.17    1.00
  803                  CONDUIT    258.45     0  11:17      1.46    0.10    1.00
  804                  CONDUIT   1116.54     0  07:19      8.27    0.21    1.00
  805                  CONDUIT   1245.70     0  07:39      8.70    0.24    1.00
  806                  CONDUIT    334.06     0  07:31      5.10    0.13    1.00
  807                  CONDUIT    927.45     0  07:27      7.33    0.18    1.00
  808                  CONDUIT    497.85     0  11:16      3.71    0.10    1.00
  TorrenceGate         ORIFICE      0.01     0  01:53                      0.00
  Crawford             ORIFICE    804.80     0  08:05                      1.00
  
  
  ***************************
  Flow Classification Summary
  ***************************
  
  -------------------------------------------------------------------------------------
                      Adjusted    ---------- Fraction of Time in Flow Class ---------- 
                       /Actual         Up    Down  Sub   Sup   Up    Down  Norm  Inlet 
  Conduit               Length    Dry  Dry   Dry   Crit  Crit  Crit  Crit  Ltd   Ctrl  
  -------------------------------------------------------------------------------------
  197                     1.00   0.03  0.00  0.00  0.97  0.00  0.00  0.00  0.06  0.00
  206                     1.00   0.11  0.00  0.00  0.89  0.00  0.00  0.00  0.00  0.00
  207                     1.00   0.13  0.00  0.00  0.87  0.00  0.00  0.00  0.00  0.00
  208                     1.00   0.03  0.00  0.00  0.97  0.00  0.00  0.00  0.01  0.00
  217                     1.00   0.00  0.00  0.00  0.98  0.01  0.00  0.00  0.53  0.00
  218                     1.00   0.00  0.00  0.00  0.63  0.37  0.00  0.00  0.07  0.00
  219                     1.00   0.00  0.00  0.00  0.84  0.16  0.00  0.00  0.00  0.00
  220                     1.00   0.00  0.00  0.00  0.99  0.00  0.00  0.00  0.00  0.00
  221                     1.00   0.00  0.00  0.00  0.98  0.02  0.00  0.00  0.01  0.00
  222                     1.00   0.00  0.00  0.00  1.00  0.00  0.00  0.00  0.11  0.00
  234                     1.00   0.03  0.00  0.00  0.97  0.00  0.00  0.00  0.00  0.00
  240                     1.00   0.02  0.00  0.00  0.98  0.00  0.00  0.00  0.00  0.00
  244                     1.00   1.00  0.00  0.00  0.00  0.00  0.00  0.00  0.00  0.00
  247                     1.00   0.09  0.05  0.00  0.86  0.00  0.00  0.00  0.00  0.00
  249                     1.00   0.00  0.00  0.00  1.00  0.00  0.00  0.00  0.09  0.00
  250                     1.00   0.06  0.00  0.00  0.94  0.00  0.00  0.00  0.00  0.00
  251                     1.00   0.02  0.00  0.00  0.90  0.00  0.00  0.09  0.00  0.00
  256                     1.00   0.01  0.00  0.00  0.99  0.00  0.00  0.00  0.09  0.00
  259                     1.00   0.00  0.00  0.00  0.95  0.05  0.00  0.00  0.06  0.00
  261                     1.00   0.01  0.00  0.00  0.99  0.00  0.00  0.00  0.93  0.00
  271                     1.00   0.01  0.00  0.00  0.88  0.00  0.00  0.12  0.00  0.00
  285                     1.00   0.00  0.00  0.00  0.99  0.00  0.00  0.00  0.25  0.00
  287                     1.00   0.02  0.00  0.00  0.98  0.00  0.00  0.00  0.00  0.00
  289                     1.00   0.00  0.01  0.00  0.99  0.00  0.00  0.00  0.01  0.00
  290                     1.00   0.03  0.00  0.00  0.97  0.00  0.00  0.00  0.06  0.00
  294                     1.00   0.03  0.03  0.00  0.94  0.00  0.00  0.00  0.00  0.00
  295                     1.00   0.12  0.00  0.00  0.87  0.00  0.00  0.01  0.00  0.00
  296                     1.00   0.12  0.00  0.00  0.87  0.00  0.00  0.00  0.00  0.00
  297                     1.00   0.01  0.00  0.00  0.99  0.00  0.00  0.00  0.01  0.00
  302                     1.00   0.02  0.00  0.00  0.98  0.00  0.00  0.00  0.02  0.00
  305                     2.12   0.01  0.09  0.00  0.90  0.00  0.00  0.00  0.00  0.00
  306                     1.00   0.10  0.00  0.00  0.89  0.00  0.00  0.00  0.00  0.00
  307                     1.16   0.11  0.00  0.00  0.89  0.00  0.00  0.00  0.01  0.00
  309                     1.00   0.03  0.00  0.00  0.96  0.00  0.00  0.01  0.00  0.00
  320                     1.00   0.11  0.00  0.00  0.88  0.00  0.00  0.00  0.84  0.00
  321                     1.00   0.11  0.00  0.00  0.87  0.01  0.00  0.00  0.72  0.00
  329                     1.00   0.01  0.00  0.00  0.99  0.00  0.00  0.00  0.03  0.00
  331                     1.00   0.00  0.00  0.00  0.99  0.00  0.00  0.01  0.02  0.00
  343                     1.00   0.04  0.00  0.00  0.96  0.00  0.00  0.00  0.02  0.00
  352                     1.00   0.02  0.00  0.00  0.98  0.00  0.00  0.00  0.02  0.00
  353                     1.00   0.00  0.00  0.00  1.00  0.00  0.00  0.00  0.02  0.00
  354                     1.00   0.00  0.00  0.00  0.97  0.00  0.00  0.03  0.00  0.00
  373                     1.00   0.10  0.00  0.00  0.88  0.02  0.00  0.00  0.03  0.00
  418                     1.00   0.01  0.00  0.00  0.26  0.00  0.00  0.73  0.00  0.00
  426                     1.00   0.00  0.01  0.00  0.99  0.00  0.00  0.00  0.00  0.00
  433                     1.00   0.01  0.00  0.00  0.99  0.00  0.00  0.00  0.00  0.00
  482                     1.00   0.01  0.00  0.00  0.99  0.00  0.00  0.00  0.01  0.00
  507                     1.00   0.13  0.00  0.00  0.87  0.00  0.00  0.00  0.00  0.00
  577                     1.86   0.00  0.00  0.00  0.00  1.00  0.00  0.00  1.00  0.00
  594                     1.00   0.00  0.00  0.00  0.50  0.50  0.00  0.00  0.49  0.00
  597                     1.00   0.12  0.00  0.00  0.88  0.00  0.00  0.00  0.00  0.00
  598                     1.00   0.12  0.00  0.00  0.88  0.00  0.00  0.00  0.00  0.00
  599                     1.00   0.09  0.04  0.00  0.85  0.00  0.00  0.02  0.00  0.00
  600                     1.00   0.00  0.11  0.00  0.89  0.00  0.00  0.00  0.08  0.00
  601                     1.00   0.01  0.00  0.00  0.99  0.00  0.00  0.00  0.07  0.00
  602                     1.00   0.05  0.07  0.00  0.88  0.00  0.00  0.00  0.47  0.00
  603                     1.05   0.01  0.10  0.00  0.89  0.01  0.00  0.00  0.85  0.00
  604                     1.00   0.05  0.00  0.00  0.37  0.58  0.00  0.00  0.00  0.00
  607                     3.18   0.00  0.00  0.00  0.01  0.99  0.00  0.00  0.00  0.00
  608                     1.00   0.00  0.00  0.00  0.99  0.00  0.00  0.00  0.00  0.00
  609                     1.00   0.00  0.00  0.00  0.99  0.00  0.00  0.00  0.00  0.00
  610                     1.00   0.01  0.00  0.00  0.99  0.00  0.00  0.00  0.00  0.00
  613                     1.00   0.00  0.00  0.00  0.83  0.00  0.00  0.17  0.00  0.00
  639                     1.00   0.00  0.00  0.00  0.98  0.01  0.00  0.00  0.17  0.00
  685                     1.00   0.00  0.00  0.00  1.00  0.00  0.00  0.00  0.07  0.00
  731                     1.00   0.00  0.01  0.00  0.99  0.00  0.00  0.00  0.01  0.00
  733                     1.00   0.13  0.00  0.00  0.87  0.00  0.00  0.00  0.10  0.00
  754                     1.00   1.00  0.00  0.00  0.00  0.00  0.00  0.00  0.00  0.00
  756                     1.00   0.01  0.00  0.00  0.99  0.00  0.00  0.00  0.70  0.00
  758                     1.00   0.01  0.00  0.00  0.99  0.01  0.00  0.00  0.71  0.00
  759                     1.00   0.01  0.00  0.00  0.99  0.00  0.00  0.00  0.84  0.00
  760                     1.00   0.00  0.00  0.00  0.99  0.00  0.00  0.00  0.63  0.00
  761                     1.00   0.00  0.00  0.00  0.99  0.00  0.00  0.00  0.78  0.00
  762                     1.00   0.00  0.00  0.00  1.00  0.00  0.00  0.00  0.44  0.00
  763                     1.00   0.00  0.00  0.00  1.00  0.00  0.00  0.00  0.72  0.00
  764                     1.00   0.00  0.00  0.00  1.00  0.00  0.00  0.00  0.68  0.00
  765                     1.00   0.00  0.00  0.00  1.00  0.00  0.00  0.00  0.68  0.00
  766                     1.00   0.00  0.00  0.00  1.00  0.00  0.00  0.00  0.67  0.00
  768                     1.00   0.00  0.00  0.00  1.00  0.00  0.00  0.00  0.51  0.00
  770                     1.00   0.00  0.00  0.00  1.00  0.00  0.00  0.00  0.87  0.00
  771                     1.00   0.00  0.00  0.00  0.83  0.17  0.00  0.00  0.70  0.00
  772                     1.00   0.00  0.00  0.00  0.98  0.02  0.00  0.00  0.55  0.00
  773                     1.00   0.00  0.00  0.00  0.99  0.01  0.00  0.00  0.40  0.00
  774                     1.00   0.00  0.00  0.00  1.00  0.00  0.00  0.00  0.25  0.00
  775                     1.00   0.00  0.00  0.00  0.92  0.08  0.00  0.00  0.09  0.00
  776                     1.00   0.00  0.00  0.00  0.99  0.01  0.00  0.00  0.11  0.00
  777                     1.00   0.11  0.00  0.00  0.86  0.02  0.00  0.00  0.54  0.00
  778                     1.00   0.11  0.00  0.00  0.84  0.05  0.00  0.00  0.75  0.00
  779                     1.00   0.11  0.00  0.00  0.00  0.00  0.00  0.89  0.00  0.00
  780                     1.00   0.02  0.00  0.00  0.96  0.00  0.03  0.00  0.00  0.00
  781                     1.00   0.01  0.00  0.00  0.92  0.00  0.07  0.00  0.00  0.00
  782                     1.00   0.01  0.00  0.00  0.89  0.00  0.00  0.10  0.00  0.00
  783                     1.00   0.00  0.00  0.00  0.87  0.00  0.13  0.00  0.00  0.00
  784                     1.00   0.01  0.00  0.00  0.86  0.00  0.00  0.12  0.00  0.00
  785                     1.00   0.15  0.01  0.00  0.84  0.00  0.00  0.00  0.00  0.00
  786                     1.00   0.01  0.00  0.00  0.02  0.97  0.00  0.00  0.00  0.00
  787                     1.00   0.00  0.00  0.00  0.00  0.00  0.00  1.00  0.00  0.00
  788                     1.00   0.00  0.00  0.00  1.00  0.00  0.00  0.00  0.92  0.00
  789                     1.00   0.00  0.00  0.00  0.96  0.04  0.00  0.00  0.86  0.00
  790                     1.00   0.00  0.00  0.00  0.97  0.03  0.00  0.00  0.86  0.00
  791                     1.00   0.00  0.00  0.00  0.99  0.01  0.00  0.00  0.95  0.00
  792                     1.00   0.01  0.00  0.00  0.99  0.00  0.00  0.00  0.11  0.00
  793                     1.00   0.01  0.00  0.00  0.99  0.00  0.00  0.00  0.07  0.00
  794                     1.00   0.10  0.00  0.00  0.86  0.00  0.00  0.04  0.01  0.00
  796                     1.00   0.03  0.00  0.00  0.96  0.00  0.00  0.01  0.00  0.00
  797                     1.00   0.12  0.00  0.00  0.87  0.00  0.00  0.01  0.00  0.00
  798                     1.00   0.00  0.00  0.00  1.00  0.00  0.00  0.00  0.09  0.00
  799                     1.00   0.00  0.00  0.00  1.00  0.00  0.00  0.00  0.10  0.00
  800                     1.00   0.00  0.00  0.00  1.00  0.00  0.00  0.00  0.09  0.00
  801                     1.00   0.03  0.00  0.00  0.97  0.00  0.00  0.00  0.04  0.00
  802                     1.00   0.03  0.00  0.00  0.97  0.00  0.00  0.00  0.02  0.00
  803                     1.00   0.03  0.09  0.00  0.87  0.00  0.00  0.00  0.02  0.00
  804                     1.00   0.03  0.00  0.00  0.97  0.00  0.00  0.00  0.02  0.00
  805                     1.00   0.03  0.00  0.00  0.97  0.00  0.00  0.00  0.03  0.00
  806                     1.00   0.02  0.09  0.00  0.89  0.00  0.00  0.00  0.06  0.00
  807                     1.00   0.02  0.00  0.00  0.97  0.00  0.00  0.01  0.07  0.00
  808                     1.00   0.02  0.00  0.00  0.98  0.00  0.00  0.00  0.10  0.00
  
  
  *************************
  Conduit Surcharge Summary
  *************************
  
  ----------------------------------------------------------------------------
                                                           Hours        Hours 
                         --------- Hours Full --------   Above Full   Capacity
  Conduit                Both Ends  Upstream  Dnstream   Normal Flow   Limited
  ----------------------------------------------------------------------------
  197                        42.37     42.37     42.53      0.01         0.01
  206                        39.28     39.28     39.35      0.01         0.02
  207                        40.72     40.72     40.74      0.01         0.06
  208                        42.53     42.53     42.61      0.01         0.01
  217                        12.73     12.73     16.50      0.01         0.01
  218                        16.50     16.50     17.57      0.01         0.01
  219                        22.06     22.06     22.15      0.01         0.01
  220                        25.57     25.57     25.83      0.01         4.59
  221                        42.16     42.16     42.39      0.01         0.01
  222                        42.39     42.39     42.64      0.01         0.01
  234                        42.32     42.32     42.37      0.01         0.01
  240                        42.77     42.77     42.78      0.01         0.08
  247                        39.27     39.27     39.55      0.01         0.01
  249                        39.16     39.16     39.39      0.01         0.01
  250                        42.68     42.68     42.81      0.01         0.01
  251                        40.14     40.14     40.33      0.01         0.02
  256                        41.10     41.10     41.20      0.01         0.03
  259                        37.15     37.15     37.48      0.01         0.01
  271                        41.20     41.20     41.22      0.01         1.58
  285                        22.15     22.15     25.57      0.01         0.01
  287                        42.78     42.78     42.88      0.01         0.07
  289                        42.68     42.68     42.76      0.01         0.01
  290                        42.61     42.61     42.67      0.01         0.01
  294                        42.81     42.81     43.12      0.01         0.01
  295                        42.87     42.87     42.92      0.01         0.01
  296                        42.77     42.77     42.82      0.01         0.01
  297                        42.62     42.62     42.68      0.01         0.04
  302                        39.08     39.08     39.10      0.01         0.01
  305                        42.26     42.26     42.68      0.01         0.01
  306                        42.24     42.24     42.26      0.01         0.04
  307                        42.24     42.24     42.62      0.01         0.01
  309                        42.88     42.88     43.02      0.01         0.04
  331                        39.73     39.73     39.97      0.01         0.03
  343                        43.10     43.10     43.14      0.01         0.01
  352                        42.70     42.70     42.77      0.01         0.01
  353                        42.64     42.64     42.66      0.01         0.01
  354                        42.66     42.66     42.70      0.01         0.01
  373                        42.06     42.06     42.15      0.01         0.01
  418                         7.41      7.41      7.52      0.01         0.01
  433                        12.32     12.32     12.34      0.01         0.01
  482                        12.34     12.34     12.34      0.01         0.01
  507                        39.49     39.49     39.90      0.01         0.01
  597                        42.82     42.82     42.86      0.01         0.01
  598                        42.86     42.86     42.87      0.01         0.01
  599                        39.90     39.90     41.21      0.01         0.01
  600                        41.21     41.21     41.35      0.01         0.01
  601                        39.97     39.97     40.31      0.01         0.03
  603                         0.01      0.01      5.37      0.01         0.01
  607                         0.01      0.01      0.01      1.03         0.01
  613                        39.39     39.39     39.73      0.01         0.01
  639                        39.17     39.17     42.19      0.01         0.01
  685                        42.19     42.19     42.23      4.82         5.42
  731                        12.34     12.34     12.35      0.01         0.01
  733                        39.48     39.49     39.49      0.01         3.34
  756                         6.00      6.00      7.41      0.01         0.01
  758                         0.01      0.01      6.00      0.01         0.01
  763                         0.01      0.01      0.01      0.87         0.01
  764                         0.01      0.01      0.01      0.82         0.01
  765                         0.01      0.01      0.01      0.80         0.01
  766                         0.01      0.01      0.01      0.81         0.01
  768                         0.01      0.01      0.01      0.86         0.01
  772                         0.01      0.01     12.73      0.01         0.01
  773                        17.57     17.57     22.06      0.01         0.01
  774                        25.83     25.83     37.15      0.01         0.01
  775                        37.48     37.48     41.36      0.01         0.01
  776                        41.36     41.36     42.16      0.01         0.01
  780                        41.91     41.94     41.91     43.94        35.39
  781                        41.68     41.70     41.68     43.71        35.17
  782                        41.40     41.42     41.44     43.47         6.32
  783                        40.51     40.80     40.51     42.97        33.29
  784                        39.81     39.81     39.90     42.87         5.63
  785                        37.20     37.20     38.93      0.01         0.01
  792                        41.35     41.35     41.97      0.01         0.02
  793                        40.31     40.31     41.35      0.01         0.07
  794                        42.15     42.15     42.77      0.01         0.02
  796                        43.02     43.02     43.10      0.01         0.02
  797                        42.97     42.99     42.97     11.27        16.71
  798                        37.79     37.79     39.16      0.01         0.01
  799                        37.32     37.32     37.79      0.01         0.01
  800                        37.25     37.25     37.32      0.01         0.01
  801                        41.92     41.92     42.32      0.01         0.01
  802                        41.63     41.63     41.92      0.01         0.01
  803                        40.74     40.74     42.66      0.01         0.01
  804                        40.76     40.76     41.63      0.01         0.01
  805                        39.61     39.61     40.76      0.01         0.01
  806                        39.35     39.35     41.61      0.01         0.01
  807                        39.10     39.10     39.61      0.01         0.01
  808                        39.04     39.04     39.08      0.01         0.01
  

  Analysis begun on:  Fri Nov 29 08:32:18 2019
  Analysis ended on:  Fri Nov 29 08:32:37 2019
  Total elapsed time: 00:00:19