
  EPA STORM WATER MANAGEMENT MODEL - VERSION 5.1 (Build 5.1.013)
  --------------------------------------------------------------

  
  ERROR 209: undefined object 2931518C#1 at line 247 of [SUBAREA] section:
  2931518C#1	0.010000	0.030000	0.015000	0.100000	0.000000	OUTLET

  
  ERROR 209: undefined object 4320608#1 at line 296 of [SUBAREA] section:
  4320608#1	0.100000	0.001000	0.050000	0.050000	25.000000	OUTLET

  
  ERROR 209: undefined object 44018#1 at line 300 of [SUBAREA] section:
  44018#1	0.020000	0.400000	0.080000	0.150000	0.000000	OUTLET

  
  ERROR 209: undefined object 44059#1 at line 304 of [SUBAREA] section:
  44059#1	0.020000	0.400000	0.080000	0.150000	0.000000	OUTLET

  
  ERROR 209: undefined object 45030#1 at line 312 of [SUBAREA] section:
  45030#1	0.020000	0.400000	0.080000	0.150000	0.000000	OUTLET

  
  ERROR 209: undefined object FRANCISCANNON#1 at line 3135 of [PUMP] section:
  FRANCIS_CANNO1	2701208	2701206_1	FRANCISCANNON#1	ON	0.000000	0.000000

  
  ERROR 209: undefined object FRANCISCANNON#2 at line 3136 of [PUMP] section:
  FRANCIS_CANNO2	2701208	2701206_1	FRANCISCANNON#2	ON	0.000000	0.000000

  
  ERROR 209: undefined object FRANCISCANNON#2 at line 3137 of [PUMP] section:
  FRANCIS_CANNO3	2701208	2701206_1	FRANCISCANNON#2	ON	0.000000	0.000000

  
  ERROR 209: undefined object MARIONHAY1 at line 3142 of [PUMP] section:
  MARIONHAYPS_1	MHAYPSFAKE	HAYPSFAKE2	MARIONHAY1	ON	0.000000	0.000000

  
  ERROR 209: undefined object MARIONHAY2 at line 3143 of [PUMP] section:
  MARIONHAYPS_2	MHAYPSFAKE	HAYPSFAKE2	MARIONHAY2	ON	0.000000	0.000000


  Analysis begun on:  Fri Nov 29 08:32:38 2019
  Analysis ended on:  Fri Nov 29 08:32:38 2019
  Total elapsed time: < 1 sec