
  EPA STORM WATER MANAGEMENT MODEL - VERSION 5.1 (Build 5.1.013)
  --------------------------------------------------------------

  
  ERROR 209: undefined object - at line 783 of [SUBCATCHMENT] section:
  SUB-B1	-	-	445457.569957	0.000000	500.000000	0.500000	0.000000

  
  ERROR 209: undefined object - at line 785 of [SUBCATCHMENT] section:
  SUB-B10	-	-	75640.738332	0.000000	500.000000	0.500000	0.000000

  
  ERROR 209: undefined object - at line 787 of [SUBCATCHMENT] section:
  SUB-B11	-	-	102090.392897	0.000000	500.000000	0.500000	0.000000

  
  ERROR 209: undefined object - at line 789 of [SUBCATCHMENT] section:
  SUB-B13	-	-	106702.888411	0.000000	500.000000	0.500000	0.000000

  
  ERROR 209: undefined object - at line 791 of [SUBCATCHMENT] section:
  SUB-B14	-	-	114173.406442	0.000000	500.000000	0.500000	0.000000

  
  ERROR 209: undefined object - at line 793 of [SUBCATCHMENT] section:
  SUB-B15	-	-	47807.041957	0.000000	500.000000	0.500000	0.000000

  
  ERROR 209: undefined object - at line 795 of [SUBCATCHMENT] section:
  SUB-B16	-	-	39743.948816	0.000000	500.000000	0.500000	0.000000

  
  ERROR 209: undefined object - at line 797 of [SUBCATCHMENT] section:
  SUB-B17	-	-	86414.303795	0.000000	500.000000	0.500000	0.000000

  
  ERROR 209: undefined object - at line 799 of [SUBCATCHMENT] section:
  SUB-B18	-	-	59686.479174	0.000000	500.000000	0.500000	0.000000

  
  ERROR 209: undefined object - at line 801 of [SUBCATCHMENT] section:
  SUB-B20	-	-	140463.668893	0.000000	500.000000	0.500000	0.000000

  
  ERROR 209: undefined object - at line 803 of [SUBCATCHMENT] section:
  SUB-B21	-	-	50482.751807	0.000000	500.000000	0.500000	0.000000

  
  ERROR 209: undefined object - at line 805 of [SUBCATCHMENT] section:
  SUB-B3	-	-	664057.838240	0.000000	500.000000	0.500000	0.000000

  
  ERROR 209: undefined object - at line 807 of [SUBCATCHMENT] section:
  SUB-B32	-	-	109418.627717	0.000000	500.000000	0.500000	0.000000

  
  ERROR 209: undefined object - at line 809 of [SUBCATCHMENT] section:
  SUB-B37	-	-	50342.494925	0.000000	500.000000	0.500000	0.000000

  
  ERROR 209: undefined object - at line 811 of [SUBCATCHMENT] section:
  SUB-B5	-	-	495621.560377	0.000000	500.000000	0.500000	0.000000

  
  ERROR 209: undefined object - at line 813 of [SUBCATCHMENT] section:
  SUB-B6	-	-	571214.525303	0.000000	500.000000	0.500000	0.000000

  
  ERROR 209: undefined object - at line 815 of [SUBCATCHMENT] section:
  SUB-B7	-	-	259808.592926	0.000000	500.000000	0.500000	0.000000

  
  ERROR 209: undefined object - at line 817 of [SUBCATCHMENT] section:
  SUB-B8	-	-	120829.732112	0.000000	500.000000	0.500000	0.000000

  
  ERROR 209: undefined object - at line 819 of [SUBCATCHMENT] section:
  SUB-B9	-	-	64934.741750	0.000000	500.000000	0.500000	0.000000

  
  ERROR 209: undefined object RENGAS at line 8771 of [INFLOW] section:
  RENGAS	FLOW	""	FLOW  1.0	1.000000

  
  ERROR 209: undefined object RENGASNU at line 8772 of [INFLOW] section:
  RENGASNU	FLOW	""	FLOW  1.0	1.000000

  
  ERROR 209: undefined object RENRRGA at line 8773 of [INFLOW] section:
  RENRRGA	FLOW	""	FLOW  1.0	1.000000

  
  ERROR 209: undefined object PATN-01MCL-H-WKDAY, Weekday Flow at line 8890 of [DWF] section:
  56718	FLOW	0.864000	""	""	"PATN-01MCL-H-WKDAY, Weekday Flow"	"PATN-01MCL-H-WKND, Wkend Flows F"

  
  ERROR 209: undefined object PATN-01MCL-H-WKDAY, Weekday Flow at line 8891 of [DWF] section:
  56719	FLOW	1.947000	""	""	"PATN-01MCL-H-WKDAY, Weekday Flow"	"PATN-01MCL-H-WKND, Wkend Flows F"

  
  ERROR 209: undefined object PATN-01MCL-H-WKDAY, Weekday Flow at line 8892 of [DWF] section:
  56720	FLOW	0.894000	""	""	"PATN-01MCL-H-WKDAY, Weekday Flow"	"PATN-01MCL-H-WKND, Wkend Flows F"

  
  ERROR 209: undefined object PATN-01MCL-H-WKDAY, Weekday Flow at line 8893 of [DWF] section:
  56721	FLOW	1.083000	""	""	"PATN-01MCL-H-WKDAY, Weekday Flow"	"PATN-01MCL-H-WKND, Wkend Flows F"

  
  ERROR 209: undefined object PATN-01MCL-H-WKDAY, Weekday Flow at line 8894 of [DWF] section:
  56722	FLOW	0.879000	""	""	"PATN-01MCL-H-WKDAY, Weekday Flow"	"PATN-01MCL-H-WKND, Wkend Flows F"

  
  ERROR 209: undefined object PATN-01MCL-H-WKDAY, Weekday Flow at line 8895 of [DWF] section:
  56723	FLOW	2.448000	""	""	"PATN-01MCL-H-WKDAY, Weekday Flow"	"PATN-01MCL-H-WKND, Wkend Flows F"

  
  ERROR 209: undefined object PATN-01MCL-H-WKDAY, Weekday Flow at line 8896 of [DWF] section:
  56726	FLOW	1.368000	""	""	"PATN-01MCL-H-WKDAY, Weekday Flow"	"PATN-01MCL-H-WKND, Wkend Flows F"

  
  ERROR 209: undefined object PATN-01MCL-H-WKDAY, Weekday Flow at line 8897 of [DWF] section:
  56727	FLOW	1.482000	""	""	"PATN-01MCL-H-WKDAY, Weekday Flow"	"PATN-01MCL-H-WKND, Wkend Flows F"

  
  ERROR 209: undefined object DUMMY-N1 at line 9520 of [DWF] section:
  DUMMY-N1	FLOW	32.100000	"PATN-N1N2-M-PPL"	"PATN-N1N2-D-PPL"	"PATN-01MCL-H-WKDAY"	"PATN-01MCL-H-WKND"

  
  ERROR 209: undefined object PATN-N1N2-M-BASE at line 9521 of [DWF] section:
  DUMMY-N2	FLOW	41.300000	"PATN-N1N2-M-BASE"	"PATN-N1N2-D-BASE"	""	""

  
  ERROR 209: undefined object PATN-01MCL-H-WKDAY, Weekday Flow at line 9523 of [DWF] section:
  F56725	FLOW	0.669000	""	""	"PATN-01MCL-H-WKDAY, Weekday Flow"	"PATN-01MCL-H-WKND, Wkend Flows F"

  
  ERROR 209: undefined object HG-GBUD-1YRARI at line 9530 of [RDII] section:
  1029	HG-GBUD-1YRARI	0.666246

  
  ERROR 209: undefined object HG-NE-1YRARI at line 9531 of [RDII] section:
  1032	HG-NE-1YRARI	1.498058

  
  ERROR 209: undefined object HG-NE-1YRARI at line 9532 of [RDII] section:
  1035	HG-NE-1YRARI	0.564480

  
  ERROR 209: undefined object HG-KINR-1YRARI at line 9533 of [RDII] section:
  1049	HG-KINR-1YRARI	0.171111

  
  ERROR 209: undefined object HG-KINR-1YRARI at line 9534 of [RDII] section:
  1051	HG-KINR-1YRARI	0.235289

  
  ERROR 209: undefined object HG-KINR-1YRARI at line 9535 of [RDII] section:
  1057	HG-KINR-1YRARI	0.080200

  
  ERROR 209: undefined object HG-GBUD-1YRARI at line 9536 of [RDII] section:
  1063	HG-GBUD-1YRARI	0.321800

  
  ERROR 209: undefined object HG-GBUD-1YRARI at line 9537 of [RDII] section:
  1082	HG-GBUD-1YRARI	0.100871

  
  ERROR 209: undefined object HYDROGRH-MCL-1YR-ARI at line 9538 of [RDII] section:
  1093	HYDROGRH-MCL-1YR-ARI	0.144300

  
  ERROR 209: undefined object HG-KINR-1YRARI at line 9539 of [RDII] section:
  1094	HG-KINR-1YRARI	0.598870

  
  ERROR 209: undefined object HG-NE-1YRARI at line 9540 of [RDII] section:
  1103	HG-NE-1YRARI	0.398125

  
  ERROR 209: undefined object HG-KINR-1YRARI at line 9541 of [RDII] section:
  1109	HG-KINR-1YRARI	0.296118

  
  ERROR 209: undefined object HG-KINR-1YRARI at line 9542 of [RDII] section:
  1110	HG-KINR-1YRARI	0.346621

  
  ERROR 209: undefined object HG-NELS-1YRARI at line 9543 of [RDII] section:
  1130	HG-NELS-1YRARI	0.050100

  
  ERROR 209: undefined object HG-NELS-1YRARI at line 9544 of [RDII] section:
  1139	HG-NELS-1YRARI	0.000000

  
  ERROR 209: undefined object HYDROGRH-GPURK-1YR-ARI at line 9545 of [RDII] section:
  1182	HYDROGRH-GPURK-1YR-ARI	0.046999

  
  ERROR 209: undefined object HG-KINR-1YRARI at line 9546 of [RDII] section:
  1221	HG-KINR-1YRARI	0.313535

  
  ERROR 209: undefined object HG-KINR-1YRARI at line 9547 of [RDII] section:
  1222	HG-KINR-1YRARI	0.129156

  
  ERROR 209: undefined object HG-KINR-1YRARI at line 9548 of [RDII] section:
  1223	HG-KINR-1YRARI	0.119094

  
  ERROR 209: undefined object HG-KINR-1YRARI at line 9549 of [RDII] section:
  1224	HG-KINR-1YRARI	0.177441

  
  ERROR 209: undefined object HG-KINR-1YRARI at line 9550 of [RDII] section:
  1225	HG-KINR-1YRARI	0.224724

  
  ERROR 209: undefined object HYDROGRH-GCOLE-1YR-ARI at line 9551 of [RDII] section:
  1242	HYDROGRH-GCOLE-1YR-ARI	0.174800

  
  ERROR 209: undefined object HYDROGRH-MCL-1YR-ARI at line 9552 of [RDII] section:
  28885	HYDROGRH-MCL-1YR-ARI	0.403800

  
  ERROR 209: undefined object HYDROGRH-MCL-1YR-ARI at line 9553 of [RDII] section:
  28887	HYDROGRH-MCL-1YR-ARI	0.548900

  
  ERROR 209: undefined object HG-NELS-1YRARI at line 9554 of [RDII] section:
  29699	HG-NELS-1YRARI	0.469200

  
  ERROR 209: undefined object HYDROGRH-MCL-1YR-ARI at line 9555 of [RDII] section:
  33275	HYDROGRH-MCL-1YR-ARI	0.505800

  
  ERROR 209: undefined object HYDROGRH-MCL-1YR-ARI at line 9556 of [RDII] section:
  33276	HYDROGRH-MCL-1YR-ARI	0.423500

  
  ERROR 209: undefined object HYDROGRH-MCL-1YR-ARI at line 9557 of [RDII] section:
  33277	HYDROGRH-MCL-1YR-ARI	0.286200

  
  ERROR 209: undefined object HYDROGRH-MCL-1YR-ARI at line 9558 of [RDII] section:
  33489	HYDROGRH-MCL-1YR-ARI	0.221600

  
  ERROR 209: undefined object HYDROGRH-MCL-1YR-ARI at line 9559 of [RDII] section:
  33490	HYDROGRH-MCL-1YR-ARI	0.198300

  
  ERROR 209: undefined object HYDROGRH-MCL-1YR-ARI at line 9560 of [RDII] section:
  33645	HYDROGRH-MCL-1YR-ARI	0.230100

  
  ERROR 209: undefined object HG-KINR-1YRARI at line 9561 of [RDII] section:
  35471	HG-KINR-1YRARI	0.495068

  
  ERROR 209: undefined object HYDROGRH-MCL-1YR-ARI at line 9562 of [RDII] section:
  35627	HYDROGRH-MCL-1YR-ARI	0.506000

  
  ERROR 209: undefined object HG-NELS-1YRARI at line 9563 of [RDII] section:
  39977	HG-NELS-1YRARI	0.350600

  
  ERROR 209: undefined object HYDROGRH-GCOLE-1YR-ARI at line 9564 of [RDII] section:
  40459	HYDROGRH-GCOLE-1YR-ARI	0.295800

  
  ERROR 209: undefined object HYDROGRH-GCOLE-1YR-ARI at line 9565 of [RDII] section:
  40460	HYDROGRH-GCOLE-1YR-ARI	0.392100

  
  ERROR 209: undefined object HYDROGRH-GCOLE-1YR-ARI at line 9566 of [RDII] section:
  40461	HYDROGRH-GCOLE-1YR-ARI	0.208000

  
  ERROR 209: undefined object HYDROGRH-GCOLE-1YR-ARI at line 9567 of [RDII] section:
  40462	HYDROGRH-GCOLE-1YR-ARI	0.133100

  
  ERROR 209: undefined object HG-KING-1YRARI at line 9568 of [RDII] section:
  40675	HG-KING-1YRARI	0.038200

  
  ERROR 209: undefined object HYDROGRH-GCOLE-1YR-ARI at line 9569 of [RDII] section:
  40698	HYDROGRH-GCOLE-1YR-ARI	0.397300

  
  ERROR 209: undefined object HG-GBUD-1YRARI at line 9570 of [RDII] section:
  40887	HG-GBUD-1YRARI	0.600527

  
  ERROR 209: undefined object HYDROGRH-GCOLE-1YR-ARI at line 9571 of [RDII] section:
  41319	HYDROGRH-GCOLE-1YR-ARI	0.603900

  
  ERROR 209: undefined object HYDROGRH-GCOLE-1YR-ARI at line 9572 of [RDII] section:
  41320	HYDROGRH-GCOLE-1YR-ARI	0.348200

  
  ERROR 209: undefined object HYDROGRH-GCOLE-1YR-ARI at line 9573 of [RDII] section:
  41321	HYDROGRH-GCOLE-1YR-ARI	0.156000

  
  ERROR 209: undefined object HG-KING-1YRARI at line 9574 of [RDII] section:
  43699	HG-KING-1YRARI	0.086500

  
  ERROR 209: undefined object HG-KING-1YRARI at line 9575 of [RDII] section:
  43700	HG-KING-1YRARI	0.077500

  
  ERROR 209: undefined object HG-KING-1YRARI at line 9576 of [RDII] section:
  43701	HG-KING-1YRARI	0.110000

  
  ERROR 209: undefined object HYDROGRH-GPURK-1YR-ARI at line 9577 of [RDII] section:
  45877	HYDROGRH-GPURK-1YR-ARI	0.428700

  
  ERROR 209: undefined object HG-NELS-1YRARI at line 9578 of [RDII] section:
  46262	HG-NELS-1YRARI	0.450600

  
  ERROR 209: undefined object HG-KINR-1YRARI at line 9579 of [RDII] section:
  46699	HG-KINR-1YRARI	0.321148

  
  ERROR 209: undefined object HG-KINR-1YRARI at line 9580 of [RDII] section:
  46700	HG-KINR-1YRARI	0.565608

  
  ERROR 209: undefined object HG-KINR-1YRARI at line 9581 of [RDII] section:
  46701	HG-KINR-1YRARI	0.646435

  
  ERROR 209: undefined object HG-GBUD-1YRARI at line 9582 of [RDII] section:
  47739	HG-GBUD-1YRARI	0.268460

  
  ERROR 209: undefined object HG-GBUD-1YRARI at line 9583 of [RDII] section:
  47756	HG-GBUD-1YRARI	0.383151

  
  ERROR 209: undefined object HG-NELS-1YRARI at line 9584 of [RDII] section:
  48123	HG-NELS-1YRARI	0.163500

  
  ERROR 209: undefined object HG-NELS-1YRARI at line 9585 of [RDII] section:
  48124	HG-NELS-1YRARI	0.384900

  
  ERROR 209: undefined object HYDROGRH-GCOLE-1YR-ARI at line 9586 of [RDII] section:
  48981	HYDROGRH-GCOLE-1YR-ARI	1.400500

  
  ERROR 209: undefined object HYDROGRH-GCOLE-1YR-ARI at line 9587 of [RDII] section:
  48982	HYDROGRH-GCOLE-1YR-ARI	0.450300

  
  ERROR 209: undefined object HYDROGRH-GCOLE-1YR-ARI at line 9588 of [RDII] section:
  48983	HYDROGRH-GCOLE-1YR-ARI	0.497600

  
  ERROR 209: undefined object HYDROGRH-GCOLE-1YR-ARI at line 9589 of [RDII] section:
  48984	HYDROGRH-GCOLE-1YR-ARI	0.570400

  
  ERROR 209: undefined object HYDROGRH-GCOLE-1YR-ARI at line 9590 of [RDII] section:
  48985	HYDROGRH-GCOLE-1YR-ARI	0.784300

  
  ERROR 209: undefined object HYDROGRH-GCOLE-1YR-ARI at line 9591 of [RDII] section:
  48986	HYDROGRH-GCOLE-1YR-ARI	0.757000

  
  ERROR 209: undefined object HYDROGRH-GCOLE-1YR-ARI at line 9592 of [RDII] section:
  49025	HYDROGRH-GCOLE-1YR-ARI	0.511600

  
  ERROR 209: undefined object HYDROGRH-GCOLE-1YR-ARI at line 9593 of [RDII] section:
  49026	HYDROGRH-GCOLE-1YR-ARI	0.621200

  
  ERROR 209: undefined object HYDROGRH-GCOLE-1YR-ARI at line 9594 of [RDII] section:
  49027	HYDROGRH-GCOLE-1YR-ARI	0.342300

  
  ERROR 209: undefined object HYDROGRH-GCOLE-1YR-ARI at line 9595 of [RDII] section:
  49102	HYDROGRH-GCOLE-1YR-ARI	0.759500

  
  ERROR 209: undefined object HYDROGRH-GCOLE-1YR-ARI at line 9596 of [RDII] section:
  49103	HYDROGRH-GCOLE-1YR-ARI	0.351100

  
  Maximum error count exceeded.

  Analysis begun on:  Sat Nov 30 08:10:09 2019
  Analysis ended on:  Sat Nov 30 08:10:09 2019
  Total elapsed time: < 1 sec