
  EPA STORM WATER MANAGEMENT MODEL - VERSION 5.1 (Build 5.1.013)
  --------------------------------------------------------------

  WARNING 04: minimum elevation drop used for Conduit CO-6399
  WARNING 04: minimum elevation drop used for Conduit CO-6557
  WARNING 04: minimum elevation drop used for Conduit CO-6158
  WARNING 04: minimum elevation drop used for Conduit CO-3736
  WARNING 03: negative offset ignored for Link CO-6232
  WARNING 04: minimum elevation drop used for Conduit CO-6232
  WARNING 04: minimum elevation drop used for Conduit CO-4990
  WARNING 04: minimum elevation drop used for Conduit CO-3756
  WARNING 04: minimum elevation drop used for Conduit CO-2098
  WARNING 04: minimum elevation drop used for Conduit CO-3274
  WARNING 04: minimum elevation drop used for Conduit CO-3286
  WARNING 04: minimum elevation drop used for Conduit CO-4912
  WARNING 04: minimum elevation drop used for Conduit CO-3739
  WARNING 04: minimum elevation drop used for Conduit CO-4983
  WARNING 04: minimum elevation drop used for Conduit CO-4723
  WARNING 04: minimum elevation drop used for Conduit CO-4975
  WARNING 04: minimum elevation drop used for Conduit CO-4669
  WARNING 04: minimum elevation drop used for Conduit CO-3693
  WARNING 04: minimum elevation drop used for Conduit CO-5388
  WARNING 04: minimum elevation drop used for Conduit CO-4646
  WARNING 04: minimum elevation drop used for Conduit CO-4703
  WARNING 04: minimum elevation drop used for Conduit CO-4450
  WARNING 04: minimum elevation drop used for Conduit CO-4452
  WARNING 04: minimum elevation drop used for Conduit CO-4468
  WARNING 04: minimum elevation drop used for Conduit CO-5394
  WARNING 04: minimum elevation drop used for Conduit CO-5357
  WARNING 04: minimum elevation drop used for Conduit CO-6165
  WARNING 04: minimum elevation drop used for Conduit CO-4446
  WARNING 04: minimum elevation drop used for Conduit CO-4460
  WARNING 04: minimum elevation drop used for Conduit CO-4448
  WARNING 04: minimum elevation drop used for Conduit CO-6681
  WARNING 04: minimum elevation drop used for Conduit CO-4917
  WARNING 04: minimum elevation drop used for Conduit CO-4116
  WARNING 04: minimum elevation drop used for Conduit CO-CO-82
  WARNING 03: negative offset ignored for Link CO-111
  WARNING 04: minimum elevation drop used for Conduit PP-1
  WARNING 08: elevation drop exceeds length for Conduit PP-2
  WARNING 04: minimum elevation drop used for Conduit PP-4
  WARNING 04: minimum elevation drop used for Conduit PP-18
  WARNING 04: minimum elevation drop used for Conduit PP-25
  WARNING 04: minimum elevation drop used for Conduit PP-26
  WARNING 04: minimum elevation drop used for Conduit PP-27
  WARNING 04: minimum elevation drop used for Conduit PP-28
  WARNING 04: minimum elevation drop used for Conduit PP-29
  WARNING 04: minimum elevation drop used for Conduit PP-67
  WARNING 04: minimum elevation drop used for Conduit PP-74
  WARNING 04: minimum elevation drop used for Conduit PP-79
  WARNING 02: maximum depth increased for Node A-LS10ON-MHLS10-3796-WWTP2-LST10
  WARNING 02: maximum depth increased for Node A-6361ON-MHLS5-5074-WWTP2-LST10-FM6361
  WARNING 02: maximum depth increased for Node A-LS10ON-MHUnser-5243-WWTP2-LST10
  WARNING 02: maximum depth increased for Node A-LS10ON-MHUnser-5281-WWTP2-LST10
  WARNING 02: maximum depth increased for Node A-MH6076-WWTP2
  WARNING 02: maximum depth increased for Node A-MHEast-WW6-6717
  WARNING 02: maximum depth increased for Node A-MHQ-6895-WWTP2
  
  *********************************************************
  NOTE: The summary statistics displayed in this report are
  based on results found at every computational time step,  
  not just on results from each reporting time step.
  *********************************************************
  
  ****************
  Analysis Options
  ****************
  Flow Units ............... CFS
  Process Models:
    Rainfall/Runoff ........ NO
    RDII ................... NO
    Snowmelt ............... NO
    Groundwater ............ NO
    Flow Routing ........... YES
    Ponding Allowed ........ YES
    Water Quality .......... NO
  Flow Routing Method ...... DYNWAVE
  Surcharge Method ......... EXTRAN
  Starting Date ............ 01/01/2000 00:00:00
  Ending Date .............. 01/06/2000 00:00:00
  Antecedent Dry Days ...... 0.0
  Report Time Step ......... 00:15:00
  Routing Time Step ........ 30.00 sec
  Variable Time Step ....... YES
  Maximum Trials ........... 8
  Number of Threads ........ 1
  Head Tolerance ........... 0.001000 ft
  
  
  **************************        Volume        Volume
  Flow Routing Continuity        acre-feet      10^6 gal
  **************************     ---------     ---------
  Dry Weather Inflow .......         0.000         0.000
  Wet Weather Inflow .......         0.000         0.000
  Groundwater Inflow .......         0.000         0.000
  RDII Inflow ..............         0.000         0.000
  External Inflow ..........         0.000         0.000
  External Outflow .........         0.000         0.000
  Flooding Loss ............         0.000         0.000
  Evaporation Loss .........         0.000         0.000
  Exfiltration Loss ........         0.000         0.000
  Initial Stored Volume ....         0.077         0.025
  Final Stored Volume ......         0.077         0.025
  Continuity Error (%) .....         0.000
  
  
  ***************************
  Time-Step Critical Elements
  ***************************
  None
  
  
  ********************************
  Highest Flow Instability Indexes
  ********************************
  All links are stable.
  
  
  ******************
  Node Depth Summary
  ******************
  
  ---------------------------------------------------------------------------------
                                 Average  Maximum  Maximum  Time of Max    Reported
                                   Depth    Depth      HGL   Occurrence   Max Depth
  Node                 Type         Feet     Feet     Feet  days hr:min        Feet
  ---------------------------------------------------------------------------------
  A-MHQ-S-683-WWTP2    JUNCTION  -nan(ind)     0.00  5440.27     0  00:00        0.00
  A-MHQ-S-684-WWTP2    JUNCTION  -nan(ind)     0.00  5436.52     0  00:00        0.00
  A-MHQ-S-685-WWTP2    JUNCTION  -nan(ind)     0.00  5432.30     0  00:00        0.00
  A-MHQ-S-686-WWTP2    JUNCTION  -nan(ind)     0.00  5424.41     0  00:00        0.00
  A-MHQ-S-687-WWTP2    JUNCTION  -nan(ind)     0.00  5409.41     0  00:00        0.00
  A-MHQ-S-688-WWTP2    JUNCTION  -nan(ind)     0.00  5399.85     0  00:00        0.00
  A-MHQ-S-689-WWTP2    JUNCTION  -nan(ind)     0.00  5394.35     0  00:00        0.00
  A-MHQ-S-690-WWTP2    JUNCTION  -nan(ind)     0.00  5391.67     0  00:00        0.00
  A-MHQ-S-691-WWTP2    JUNCTION  -nan(ind)     0.00  5389.00     0  00:00        0.00
  A-MHQ-S-692-WWTP2    JUNCTION  -nan(ind)     0.00  5385.74     0  00:00        0.00
  A-MHQ-S-693-WWTP2    JUNCTION  -nan(ind)     0.00  5393.04     0  00:00        0.00
  A-MHQ-S-694-WWTP2    JUNCTION  -nan(ind)     0.00  5392.61     0  00:00        0.00
  A-MHQ-S-695-WWTP2    JUNCTION  -nan(ind)     0.00  5385.52     0  00:00        0.00
  A-MHQ-S-696-WWTP2    JUNCTION  -nan(ind)     0.00  5381.81     0  00:00        0.00
  A-MHQ-S-697-WWTP2    JUNCTION  -nan(ind)     0.00  5431.95     0  00:00        0.00
  A-MHQ-S-698-WWTP2    JUNCTION  -nan(ind)     0.00  5428.65     0  00:00        0.00
  A-MHQ-S-699-WWTP2    JUNCTION  -nan(ind)     0.00  5420.25     0  00:00        0.00
  A-MHQ-S-700-WWTP2    JUNCTION  -nan(ind)     0.00  5413.60     0  00:00        0.00
  A-MHQ-S-701-WWTP2    JUNCTION  -nan(ind)     0.00  5412.20     0  00:00        0.00
  A-MHQ-S-702-WWTP2    JUNCTION  -nan(ind)     0.00  5411.00     0  00:00        0.00
  A-MHQ-S-703-WWTP2    JUNCTION  -nan(ind)     0.00  5409.30     0  00:00        0.00
  A-MHQ-S-704-WWTP2    JUNCTION  -nan(ind)     0.00  5413.74     0  00:00        0.00
  A-MHQ-S-705-WWTP2    JUNCTION  -nan(ind)     0.00  5409.54     0  00:00        0.00
  A-MHQ-S-706-WWTP2    JUNCTION  -nan(ind)     0.00  5400.84     0  00:00        0.00
  A-MHQ-S-707-WWTP2    JUNCTION  -nan(ind)     0.00  5394.04     0  00:00        0.00
  A-MHQ-S-708-WWTP2    JUNCTION  -nan(ind)     0.00  5381.24     0  00:00        0.00
  A-MHQ-S-709-WWTP2    JUNCTION  -nan(ind)     0.00  5380.24     0  00:00        0.00
  A-MHQ-S-710-WWTP2    JUNCTION  -nan(ind)     0.00  5382.72     0  00:00        0.00
  A-MHQ-S-711-WWTP2    JUNCTION  -nan(ind)     0.00  5380.32     0  00:00        0.00
  A-MHQ-S-712-WWTP2    JUNCTION  -nan(ind)     0.00  5386.81     0  00:00        0.00
  A-MHQ-S-713-WWTP2    JUNCTION  -nan(ind)     0.00  5384.81     0  00:00        0.00
  A-MHQ-S-714-WWTP2    JUNCTION  -nan(ind)     0.00  5383.22     0  00:00        0.00
  A-MHQ-S-715-WWTP2    JUNCTION  -nan(ind)     0.00  5375.11     0  00:00        0.00
  A-MHQ-S-716-WWTP2    JUNCTION  -nan(ind)     0.00  5397.61     0  00:00        0.00
  A-MHQ-S-717-WWTP2    JUNCTION  -nan(ind)     0.00  5408.31     0  00:00        0.00
  A-MHQ-S-718-WWTP2    JUNCTION  -nan(ind)     0.00  5402.22     0  00:00        0.00
  A-MHQ-S-719-WWTP2    JUNCTION  -nan(ind)     0.00  5426.00     0  00:00        0.00
  A-MHQ-S-720-WWTP2    JUNCTION  -nan(ind)     0.00  5418.30     0  00:00        0.00
  A-MHQ-S-721-WWTP2    JUNCTION  -nan(ind)     0.00  5425.61     0  00:00        0.00
  A-MHQ-S-722-WWTP2    JUNCTION  -nan(ind)     0.00  5418.81     0  00:00        0.00
  A-MHQ-S-723-WWTP2    JUNCTION  -nan(ind)     0.00  5400.50     0  00:00        0.00
  A-MHQ-S-724-WWTP2    JUNCTION  -nan(ind)     0.00  5408.00     0  00:00        0.00
  A-MHQ-S-725-WWTP2    JUNCTION  -nan(ind)     0.00  5438.10     0  00:00        0.00
  A-MHQ-S-726-WWTP2    JUNCTION  -nan(ind)     0.00  5426.20     0  00:00        0.00
  A-MHQ-S-727-WWTP2    JUNCTION  -nan(ind)     0.00  5447.25     0  00:00        0.00
  A-MHQ-S-728-WWTP2    JUNCTION  -nan(ind)     0.00  5438.05     0  00:00        0.00
  A-MHQ-S-729-WWTP2    JUNCTION  -nan(ind)     0.00  5427.95     0  00:00        0.00
  A-MHQ-S-730-WWTP2    JUNCTION  -nan(ind)     0.00  5376.74     0  00:00        0.00
  A-MHQ-S-731-WWTP2    JUNCTION  -nan(ind)     0.00  5372.43     0  00:00        0.00
  A-MHQ-S-732-WWTP2    JUNCTION  -nan(ind)     0.00  5377.41     0  00:00        0.00
  A-MHQ-S-733-WWTP2    JUNCTION  -nan(ind)     0.00  5420.84     0  00:00        0.00
  A-MHQ-S-734-WWTP2    JUNCTION  -nan(ind)     0.00  5404.64     0  00:00        0.00
  A-MHQ-S-735-WWTP2    JUNCTION  -nan(ind)     0.00  5395.04     0  00:00        0.00
  A-MHQ-S-736-WWTP2    JUNCTION  -nan(ind)     0.00  5396.10     0  00:00        0.00
  A-MHQ-S-737-WWTP2    JUNCTION  -nan(ind)     0.00  5453.65     0  00:00        0.00
  A-MHQ-S-738-WWTP2    JUNCTION  -nan(ind)     0.00  5442.65     0  00:00        0.00
  A-MHQ-S-739-WWTP2    JUNCTION  -nan(ind)     0.00  5374.47     0  00:00        0.00
  A-MHQ-S-740-WWTP2    JUNCTION  -nan(ind)     0.00  5369.22     0  00:00        0.00
  A-MHQ-S-741-WWTP2    JUNCTION  -nan(ind)     0.00  5366.71     0  00:00        0.00
  A-MHQ-S-742-WWTP2    JUNCTION  -nan(ind)     0.00  5364.71     0  00:00        0.00
  A-MHQ-S-743-WWTP2    JUNCTION  -nan(ind)     0.00  5362.71     0  00:00        0.00
  A-MHQ-S-827-WWTP2    JUNCTION  -nan(ind)     0.00  5496.15     0  00:00        0.00
  A-MHQ-S-828-WWTP2    JUNCTION  -nan(ind)     0.00  5486.20     0  00:00        0.00
  A-MHQ-S-829-WWTP2    JUNCTION  -nan(ind)     0.00  5476.05     0  00:00        0.00
  A-MHQ-S-830-WWTP2    JUNCTION  -nan(ind)     0.00  5460.05     0  00:00        0.00
  A-MHQ-S-831-WWTP2    JUNCTION  -nan(ind)     0.00  5457.39     0  00:00        0.00
  A-MHQ-S-832-WWTP2    JUNCTION  -nan(ind)     0.00  5452.87     0  00:00        0.00
  A-MHQ-S-833-WWTP2    JUNCTION  -nan(ind)     0.00  5486.35     0  00:00        0.00
  A-MHQ-S-834-WWTP2    JUNCTION  -nan(ind)     0.00  5478.35     0  00:00        0.00
  A-MHQ-S-835-WWTP2    JUNCTION  -nan(ind)     0.00  5471.80     0  00:00        0.00
  A-MHQ-S-836-WWTP2    JUNCTION  -nan(ind)     0.00  5467.22     0  00:00        0.00
  A-MHQ-S-837-WWTP2    JUNCTION  -nan(ind)     0.00  5458.26     0  00:00        0.00
  A-MHQ-S-838-WWTP2    JUNCTION  -nan(ind)     0.00  5500.00     0  00:00        0.00
  A-MHQ-S-839-WWTP2    JUNCTION  -nan(ind)     0.00  5506.55     0  00:00        0.00
  A-MHQ-S-840-WWTP2    JUNCTION  -nan(ind)     0.00  5496.05     0  00:00        0.00
  A-MHQ-S-841-WWTP2    JUNCTION  -nan(ind)     0.00  5485.05     0  00:00        0.00
  A-MHQ-S-842-WWTP2    JUNCTION  -nan(ind)     0.00  5481.05     0  00:00        0.00
  A-MHQ-S-843-WWTP2    JUNCTION  -nan(ind)     0.00  5486.30     0  00:00        0.00
  A-MHQ-S-844-WWTP2    JUNCTION  -nan(ind)     0.00  5498.80     0  00:00        0.00
  A-MHQ-S-845-WWTP2    JUNCTION  -nan(ind)     0.00  5486.05     0  00:00        0.00
  A-MHQ-S-846-WWTP2    JUNCTION  -nan(ind)     0.00  5477.55     0  00:00        0.00
  A-MHQ-S-847-WWTP2    JUNCTION  -nan(ind)     0.00  5469.55     0  00:00        0.00
  A-MHQ-S-848-WWTP2    JUNCTION  -nan(ind)     0.00  5450.87     0  00:00        0.00
  A-MHQ-S-849-WWTP2    JUNCTION  -nan(ind)     0.00  5460.87     0  00:00        0.00
  A-MHQ-S-850-WWTP2    JUNCTION  -nan(ind)     0.00  5465.37     0  00:00        0.00
  A-MHQ-S-851-WWTP2    JUNCTION  -nan(ind)     0.00  5433.70     0  00:00        0.00
  A-MHQ-S-852-WWTP2    JUNCTION  -nan(ind)     0.00  5440.10     0  00:00        0.00
  A-MHQ-S-853-WWTP2    JUNCTION  -nan(ind)     0.00  5447.40     0  00:00        0.00
  A-MHQ-S-854-WWTP2    JUNCTION  -nan(ind)     0.00  5453.60     0  00:00        0.00
  A-MHQ-S-855-WWTP2    JUNCTION  -nan(ind)     0.00  5426.01     0  00:00        0.00
  A-MHQ-S-856-WWTP2    JUNCTION  -nan(ind)     0.00  5432.21     0  00:00        0.00
  A-MHQ-S-857-WWTP2    JUNCTION  -nan(ind)     0.00  5440.21     0  00:00        0.00
  A-MHQ-S-858-WWTP2    JUNCTION  -nan(ind)     0.00  5443.71     0  00:00        0.00
  A-MHQ-S-859-WWTP2    JUNCTION  -nan(ind)     0.00  5433.91     0  00:00        0.00
  A-MHQ-S-860-WWTP2    JUNCTION  -nan(ind)     0.00  5490.25     0  00:00        0.00
  A-MHQ-S-861-WWTP2    JUNCTION  -nan(ind)     0.00  5479.45     0  00:00        0.00
  A-MHQ-S-862-WWTP2    JUNCTION  -nan(ind)     0.00  5461.85     0  00:00        0.00
  A-MHQ-S-863-WWTP2    JUNCTION  -nan(ind)     0.00  5458.75     0  00:00        0.00
  A-MHQ-S-864-WWTP2    JUNCTION  -nan(ind)     0.00  5456.55     0  00:00        0.00
  A-MHQ-S-865-WWTP2    JUNCTION  -nan(ind)     0.00  5455.35     0  00:00        0.00
  A-MHE-866-WWTP2      JUNCTION  -nan(ind)     0.00  5353.49     0  00:00        0.00
  A-MHE-867-WWTP2      JUNCTION  -nan(ind)     0.00  5352.09     0  00:00        0.00
  A-MHE-868-WWTP2      JUNCTION  -nan(ind)     0.00  5347.79     0  00:00        0.00
  A-MHE-869-WWTP2      JUNCTION  -nan(ind)     0.00  5346.77     0  00:00        0.00
  A-MHE-870-WWTP2      JUNCTION  -nan(ind)     0.00  5345.57     0  00:00        0.00
  A-MHE-871-WWTP2      JUNCTION  -nan(ind)     0.00  5337.27     0  00:00        0.00
  A-MHE-872-WWTP2      JUNCTION  -nan(ind)     0.00  5329.47     0  00:00        0.00
  A-MHE-873-WWTP2      JUNCTION  -nan(ind)     0.00  5323.07     0  00:00        0.00
  A-MHE-874-WWTP2      JUNCTION  -nan(ind)     0.00  5316.57     0  00:00        0.00
  A-MHE-875-WWTP2      JUNCTION  -nan(ind)     0.00  5310.07     0  00:00        0.00
  A-MHE-876-WWTP2      JUNCTION  -nan(ind)     0.00  5303.47     0  00:00        0.00
  A-MHE-877-WWTP2      JUNCTION  -nan(ind)     0.00  5296.47     0  00:00        0.00
  A-MHE-878-WWTP2      JUNCTION  -nan(ind)     0.00  5288.47     0  00:00        0.00
  A-MHE-879-WWTP2      JUNCTION  -nan(ind)     0.00  5280.17     0  00:00        0.00
  A-MHE-880-WWTP2      JUNCTION  -nan(ind)     0.00  5271.57     0  00:00        0.00
  A-MHE-881-WWTP2      JUNCTION  -nan(ind)     0.00  5268.07     0  00:00        0.00
  A-MHE-882-WWTP2      JUNCTION  -nan(ind)     0.00  5262.17     0  00:00        0.00
  A-MHE-883-WWTP2      JUNCTION  -nan(ind)     0.00  5354.07     0  00:00        0.00
  A-MHE-884-WWTP2      JUNCTION  -nan(ind)     0.00  5347.67     0  00:00        0.00
  A-MHE-885-WWTP2      JUNCTION  -nan(ind)     0.00  5338.87     0  00:00        0.00
  A-MHE-886-WWTP2      JUNCTION  -nan(ind)     0.00  5333.17     0  00:00        0.00
  A-MHE-887-WWTP2      JUNCTION  -nan(ind)     0.00  5338.07     0  00:00        0.00
  A-MHE-888-WWTP2      JUNCTION  -nan(ind)     0.00  5325.37     0  00:00        0.00
  A-MHE-889-WWTP2      JUNCTION  -nan(ind)     0.00  5311.27     0  00:00        0.00
  A-MHE-890-WWTP2      JUNCTION  -nan(ind)     0.00  5309.07     0  00:00        0.00
  A-MHE-891-WWTP2      JUNCTION  -nan(ind)     0.00  5298.57     0  00:00        0.00
  A-MHE-892-WWTP2      JUNCTION  -nan(ind)     0.00  5293.17     0  00:00        0.00
  A-MHE-893-WWTP2      JUNCTION  -nan(ind)     0.00  5294.57     0  00:00        0.00
  A-MHE-894-WWTP2      JUNCTION  -nan(ind)     0.00  5287.57     0  00:00        0.00
  A-MHE-895-WWTP2      JUNCTION  -nan(ind)     0.00  5281.87     0  00:00        0.00
  A-MHE-896-WWTP2      JUNCTION  -nan(ind)     0.00  5276.87     0  00:00        0.00
  A-MHE-897-WWTP2      JUNCTION  -nan(ind)     0.00  5278.17     0  00:00        0.00
  A-MHE-898-WWTP2      JUNCTION  -nan(ind)     0.00  5276.47     0  00:00        0.00
  A-MHE-899-WWTP2      JUNCTION  -nan(ind)     0.00  5275.17     0  00:00        0.00
  A-MHE-900-WWTP2      JUNCTION  -nan(ind)     0.00  5274.07     0  00:00        0.00
  A-MHE-901-WWTP2      JUNCTION  -nan(ind)     0.00  5273.67     0  00:00        0.00
  A-MHE-902-WWTP2      JUNCTION  -nan(ind)     0.00  5272.57     0  00:00        0.00
  A-MHE-903-WWTP2      JUNCTION  -nan(ind)     0.00  5272.07     0  00:00        0.00
  A-MHE-904-WWTP2      JUNCTION  -nan(ind)     0.00  5286.87     0  00:00        0.00
  A-MHE-905-WWTP2      JUNCTION  -nan(ind)     0.00  5285.47     0  00:00        0.00
  A-MHE-906-WWTP2      JUNCTION  -nan(ind)     0.00  5282.77     0  00:00        0.00
  A-MHE-907-WWTP2      JUNCTION  -nan(ind)     0.00  5304.77     0  00:00        0.00
  A-MHE-908-WWTP2      JUNCTION  -nan(ind)     0.00  5300.47     0  00:00        0.00
  A-MHE-909-WWTP2      JUNCTION  -nan(ind)     0.00  5342.57     0  00:00        0.00
  A-MHE-910-WWTP2      JUNCTION  -nan(ind)     0.00  5337.97     0  00:00        0.00
  A-MHE-911-WWTP2      JUNCTION  -nan(ind)     0.00  5327.57     0  00:00        0.00
  A-MHE-912-WWTP2      JUNCTION  -nan(ind)     0.00  5328.87     0  00:00        0.00
  A-MHE-913-WWTP2      JUNCTION  -nan(ind)     0.00  5318.77     0  00:00        0.00
  A-MHE-914-WWTP2      JUNCTION  -nan(ind)     0.00  5352.30     0  00:00        0.00
  A-MHE-915-WWTP2      JUNCTION  -nan(ind)     0.00  5353.80     0  00:00        0.00
  A-MHE-916-WWTP2      JUNCTION  -nan(ind)     0.00  5354.80     0  00:00        0.00
  A-MHQ-S-917-WWTP2    JUNCTION  -nan(ind)     0.00  5317.39     0  00:00        0.00
  A-MHQ-S-918-WWTP2    JUNCTION  -nan(ind)     0.00  5305.24     0  00:00        0.00
  A-MHQ-S-919-WWTP2    JUNCTION  -nan(ind)     0.00  5303.34     0  00:00        0.00
  A-MHQ-S-920-WWTP2    JUNCTION  -nan(ind)     0.00  5300.35     0  00:00        0.00
  A-MHQ-S-921-WWTP2    JUNCTION  -nan(ind)     0.00  5290.71     0  00:00        0.00
  A-MHQ-S-922-WWTP2    JUNCTION  -nan(ind)     0.00  5281.76     0  00:00        0.00
  A-MHQ-S-923-WWTP2    JUNCTION  -nan(ind)     0.00  5272.74     0  00:00        0.00
  A-MHQ-S-924-WWTP2    JUNCTION  -nan(ind)     0.00  5265.18     0  00:00        0.00
  A-MHQ-S-925-WWTP2    JUNCTION  -nan(ind)     0.00  5307.14     0  00:00        0.00
  A-MHQ-S-926-WWTP2    JUNCTION  -nan(ind)     0.00  5308.64     0  00:00        0.00
  A-MHQ-S-927-WWTP2    JUNCTION  -nan(ind)     0.00  5303.39     0  00:00        0.00
  A-MHQ-S-928-WWTP2    JUNCTION  -nan(ind)     0.00  5302.49     0  00:00        0.00
  A-MHQ-S-929-WWTP2    JUNCTION  -nan(ind)     0.00  5305.09     0  00:00        0.00
  A-MHQ-S-930-WWTP2    JUNCTION  -nan(ind)     0.00  5296.09     0  00:00        0.00
  A-MHQ-S-931-WWTP2    JUNCTION  -nan(ind)     0.00  5292.29     0  00:00        0.00
  A-MHQ-S-932-WWTP2    JUNCTION  -nan(ind)     0.00  5283.78     0  00:00        0.00
  A-MHQ-S-933-WWTP2    JUNCTION  -nan(ind)     0.00  5275.78     0  00:00        0.00
  A-MHQ-S-934-WWTP2    JUNCTION  -nan(ind)     0.00  5285.59     0  00:00        0.00
  A-MHQ-S-935-WWTP2    JUNCTION  -nan(ind)     0.00  5268.69     0  00:00        0.00
  A-MHQ-S-936-WWTP2    JUNCTION  -nan(ind)     0.00  5262.59     0  00:00        0.00
  A-MHQ-S-937-WWTP2    JUNCTION  -nan(ind)     0.00  5263.59     0  00:00        0.00
  A-MHQ-S-938-WWTP2    JUNCTION  -nan(ind)     0.00  5260.89     0  00:00        0.00
  A-MHQ-S-939-WWTP2    JUNCTION  -nan(ind)     0.00  5258.09     0  00:00        0.00
  A-MHQ-S-940-WWTP2    JUNCTION  -nan(ind)     0.00  5288.48     0  00:00        0.00
  A-MHQ-S-941-WWTP2    JUNCTION  -nan(ind)     0.00  5272.48     0  00:00        0.00
  A-MHQ-S-942-WWTP2    JUNCTION  -nan(ind)     0.00  5254.85     0  00:00        0.00
  A-MHQ-943-WWTP2      JUNCTION  -nan(ind)     0.00  5489.73     0  00:00        0.00
  A-MHQ-944-WWTP2      JUNCTION  -nan(ind)     0.00  5490.73     0  00:00        0.00
  A-MHQ-945-WWTP2      JUNCTION  -nan(ind)     0.00  5492.23     0  00:00        0.00
  A-MHQ-946-WWTP2      JUNCTION  -nan(ind)     0.00  5494.23     0  00:00        0.00
  A-MHQ-947-WWTP2      JUNCTION  -nan(ind)     0.00  5495.73     0  00:00        0.00
  A-MHQ-948-WWTP2      JUNCTION  -nan(ind)     0.00  5503.73     0  00:00        0.00
  A-MHQ-949-WWTP2      JUNCTION  -nan(ind)     0.00  5508.23     0  00:00        0.00
  A-MHQ-950-WWTP2      JUNCTION  -nan(ind)     0.00  5513.73     0  00:00        0.00
  A-MHQ-951-WWTP2      JUNCTION  -nan(ind)     0.00  5514.73     0  00:00        0.00
  A-MHQ-952-WWTP2      JUNCTION  -nan(ind)     0.00  5515.83     0  00:00        0.00
  A-MHQ-953-WWTP2      JUNCTION  -nan(ind)     0.00  5517.43     0  00:00        0.00
  A-MHQ-S-954-WWTP2    JUNCTION  -nan(ind)     0.00  5510.59     0  00:00        0.00
  A-MHQ-S-955-WWTP2    JUNCTION  -nan(ind)     0.00  5515.59     0  00:00        0.00
  A-MHQ-S-956-WWTP2    JUNCTION  -nan(ind)     0.00  5519.09     0  00:00        0.00
  A-MHQ-S-957-WWTP2    JUNCTION  -nan(ind)     0.00  5521.59     0  00:00        0.00
  A-MHQ-S-958-WWTP2    JUNCTION  -nan(ind)     0.00  5526.09     0  00:00        0.00
  A-MHQ-S-959-WWTP2    JUNCTION  -nan(ind)     0.00  5529.09     0  00:00        0.00
  A-MHQ-S-960-WWTP2    JUNCTION  -nan(ind)     0.00  5532.09     0  00:00        0.00
  A-MHQ-961-WWTP2      JUNCTION  -nan(ind)     0.00  5510.73     0  00:00        0.00
  A-MHQ-962-WWTP2      JUNCTION  -nan(ind)     0.00  5508.73     0  00:00        0.00
  A-MHQ-963-WWTP2      JUNCTION  -nan(ind)     0.00  5518.23     0  00:00        0.00
  A-MHQ-964-WWTP2      JUNCTION  -nan(ind)     0.00  5498.23     0  00:00        0.00
  A-MHQ-965-WWTP2      JUNCTION  -nan(ind)     0.00  5523.73     0  00:00        0.00
  A-MHQ-966-WWTP2      JUNCTION  -nan(ind)     0.00  5522.23     0  00:00        0.00
  A-MHQ-967-WWTP2      JUNCTION  -nan(ind)     0.00  5521.23     0  00:00        0.00
  A-MHQ-968-WWTP2      JUNCTION  -nan(ind)     0.00  5506.73     0  00:00        0.00
  A-MHQ-969-WWTP2      JUNCTION  -nan(ind)     0.00  5491.73     0  00:00        0.00
  A-MHQ-970-WWTP2      JUNCTION  -nan(ind)     0.00  5483.23     0  00:00        0.00
  A-MHQ-971-WWTP2      JUNCTION  -nan(ind)     0.00  5479.73     0  00:00        0.00
  A-MHQ-972-WWTP2      JUNCTION  -nan(ind)     0.00  5476.13     0  00:00        0.00
  A-MHQ-973-WWTP2      JUNCTION  -nan(ind)     0.00  5515.73     0  00:00        0.00
  A-MHQ-974-WWTP2      JUNCTION  -nan(ind)     0.00  5494.23     0  00:00        0.00
  A-MHQ-975-WWTP2      JUNCTION  -nan(ind)     0.00  5528.43     0  00:00        0.00
  A-MHQ-976-WWTP2      JUNCTION  -nan(ind)     0.00  5518.23     0  00:00        0.00
  A-MHQ-977-WWTP2      JUNCTION  -nan(ind)     0.00  5512.73     0  00:00        0.00
  A-MHQ-978-WWTP2      JUNCTION  -nan(ind)     0.00  5501.73     0  00:00        0.00
  A-MHQ-979-WWTP2      JUNCTION  -nan(ind)     0.00  5487.73     0  00:00        0.00
  A-MHQ-980-WWTP2      JUNCTION  -nan(ind)     0.00  5479.33     0  00:00        0.00
  A-MHQ-982-WWTP2      JUNCTION  -nan(ind)     0.00  5521.23     0  00:00        0.00
  A-MHQ-983-WWTP2      JUNCTION  -nan(ind)     0.00  5523.23     0  00:00        0.00
  A-MHQ-984-WWTP2      JUNCTION  -nan(ind)     0.00  5524.23     0  00:00        0.00
  A-MHQ-985-WWTP2      JUNCTION  -nan(ind)     0.00  5525.23     0  00:00        0.00
  A-MHQ-986-WWTP2      JUNCTION  -nan(ind)     0.00  5526.23     0  00:00        0.00
  A-MHQ-987-WWTP2      JUNCTION  -nan(ind)     0.00  5528.23     0  00:00        0.00
  A-MHQ-988-WWTP2      JUNCTION  -nan(ind)     0.00  5529.23     0  00:00        0.00
  A-MHQ-S-989-WWTP2    JUNCTION  -nan(ind)     0.00  5531.59     0  00:00        0.00
  A-MHQ-S-990-WWTP2    JUNCTION  -nan(ind)     0.00  5530.99     0  00:00        0.00
  A-MHQ-S-991-WWTP2    JUNCTION  -nan(ind)     0.00  5529.39     0  00:00        0.00
  A-MHQ-S-992-WWTP2    JUNCTION  -nan(ind)     0.00  5539.11     0  00:00        0.00
  A-MHQ-S-993-WWTP2    JUNCTION  -nan(ind)     0.00  5531.11     0  00:00        0.00
  A-MHQ-S-994-WWTP2    JUNCTION  -nan(ind)     0.00  5499.41     0  00:00        0.00
  A-MHQ-S-995-WWTP2    JUNCTION  -nan(ind)     0.00  5496.00     0  00:00        0.00
  A-MHQ-S-996-WWTP2    JUNCTION  -nan(ind)     0.00  5536.09     0  00:00        0.00
  A-MHQ-S-997-WWTP2    JUNCTION  -nan(ind)     0.00  5536.09     0  00:00        0.00
  A-MHQ-998-WWTP2      JUNCTION  -nan(ind)     0.00  5483.53     0  00:00        0.00
  A-MHQ-999-WWTP2      JUNCTION  -nan(ind)     0.00  5478.73     0  00:00        0.00
  A-MHQ-1001-WWTP2     JUNCTION  -nan(ind)     0.00  5524.23     0  00:00        0.00
  A-MHQ-1002-WWTP2     JUNCTION  -nan(ind)     0.00  5527.23     0  00:00        0.00
  A-MHQ-1003-WWTP2     JUNCTION  -nan(ind)     0.00  5533.23     0  00:00        0.00
  A-MHQ-S-1004-WWTP2   JUNCTION  -nan(ind)     0.00  5497.80     0  00:00        0.00
  A-MHQ-1005-WWTP2     JUNCTION  -nan(ind)     0.00  5515.23     0  00:00        0.00
  A-MHQ-1006-WWTP2     JUNCTION  -nan(ind)     0.00  5510.23     0  00:00        0.00
  A-MHQ-1007-WWTP2     JUNCTION  -nan(ind)     0.00  5508.23     0  00:00        0.00
  A-MHQ-1008-WWTP2     JUNCTION  -nan(ind)     0.00  5506.93     0  00:00        0.00
  A-MHQ-1010-WWTP2     JUNCTION  -nan(ind)     0.00  5505.73     0  00:00        0.00
  A-MHQ-1011-WWTP2     JUNCTION  -nan(ind)     0.00  5504.23     0  00:00        0.00
  A-MHQ-1012-WWTP2     JUNCTION  -nan(ind)     0.00  5504.23     0  00:00        0.00
  A-MHQ-1013-WWTP2     JUNCTION  -nan(ind)     0.00  5508.23     0  00:00        0.00
  A-MHE-1014-WWTP2     JUNCTION  -nan(ind)     0.00  5392.20     0  00:00        0.00
  A-MHE-1015-WWTP2     JUNCTION  -nan(ind)     0.00  5382.70     0  00:00        0.00
  A-MHE-1016-WWTP2     JUNCTION  -nan(ind)     0.00  5373.60     0  00:00        0.00
  A-MHE-1017-WWTP2     JUNCTION  -nan(ind)     0.00  5365.70     0  00:00        0.00
  A-MHE-1018-WWTP2     JUNCTION  -nan(ind)     0.00  5432.70     0  00:00        0.00
  A-MHE-1019-WWTP2     JUNCTION  -nan(ind)     0.00  5428.10     0  00:00        0.00
  A-MHE-1020-WWTP2     JUNCTION  -nan(ind)     0.00  5424.50     0  00:00        0.00
  A-MHE-1021-WWTP2     JUNCTION  -nan(ind)     0.00  5421.20     0  00:00        0.00
  A-MHE-1022-WWTP2     JUNCTION  -nan(ind)     0.00  5416.70     0  00:00        0.00
  A-MHE-1023-WWTP2     JUNCTION  -nan(ind)     0.00  5407.50     0  00:00        0.00
  A-MHE-1024-WWTP2     JUNCTION  -nan(ind)     0.00  5400.30     0  00:00        0.00
  A-MHE-1025-WWTP2     JUNCTION  -nan(ind)     0.00  5412.70     0  00:00        0.00
  A-MHE-1026-WWTP2     JUNCTION  -nan(ind)     0.00  5418.10     0  00:00        0.00
  A-MHE-1027-WWTP2     JUNCTION  -nan(ind)     0.00  5415.10     0  00:00        0.00
  A-MHE-1028-WWTP2     JUNCTION  -nan(ind)     0.00  5403.20     0  00:00        0.00
  A-MHE-1029-WWTP2     JUNCTION  -nan(ind)     0.00  5393.70     0  00:00        0.00
  A-MHE-1030-WWTP2     JUNCTION  -nan(ind)     0.00  5380.30     0  00:00        0.00
  A-MHE-1031-WWTP2     JUNCTION  -nan(ind)     0.00  5365.30     0  00:00        0.00
  A-MHE-1032-WWTP2     JUNCTION  -nan(ind)     0.00  5347.60     0  00:00        0.00
  A-MHE-1033-WWTP2     JUNCTION  -nan(ind)     0.00  5350.17     0  00:00        0.00
  A-MHE-1034-WWTP2     JUNCTION  -nan(ind)     0.00  5350.71     0  00:00        0.00
  A-MHE-1035-WWTP2     JUNCTION  -nan(ind)     0.00  5354.71     0  00:00        0.00
  A-MHE-1036-WWTP2     JUNCTION  -nan(ind)     0.00  5365.11     0  00:00        0.00
  A-MHE-1037-WWTP2     JUNCTION  -nan(ind)     0.00  5375.21     0  00:00        0.00
  A-MHE-1038-WWTP2     JUNCTION  -nan(ind)     0.00  5382.71     0  00:00        0.00
  A-MHE-1039-WWTP2     JUNCTION  -nan(ind)     0.00  5390.31     0  00:00        0.00
  A-MHE-1040-WWTP2     JUNCTION  -nan(ind)     0.00  5398.31     0  00:00        0.00
  A-MHE-1041-WWTP2     JUNCTION  -nan(ind)     0.00  5410.51     0  00:00        0.00
  A-MHE-1042-WWTP2     JUNCTION  -nan(ind)     0.00  5398.31     0  00:00        0.00
  A-MHE-1043-WWTP2     JUNCTION  -nan(ind)     0.00  5387.41     0  00:00        0.00
  A-MHE-1044-WWTP2     JUNCTION  -nan(ind)     0.00  5377.81     0  00:00        0.00
  A-MHE-1045-WWTP2     JUNCTION  -nan(ind)     0.00  5428.90     0  00:00        0.00
  A-MHE-1046-WWTP2     JUNCTION  -nan(ind)     0.00  5420.90     0  00:00        0.00
  A-MHE-1047-WWTP2     JUNCTION  -nan(ind)     0.00  5368.77     0  00:00        0.00
  A-MHE-1048-WWTP2     JUNCTION  -nan(ind)     0.00  5462.62     0  00:00        0.00
  A-MHE-1049-WWTP2     JUNCTION  -nan(ind)     0.00  5445.82     0  00:00        0.00
  A-MHE-1050-WWTP2     JUNCTION  -nan(ind)     0.00  5462.60     0  00:00        0.00
  A-MHE-1051-WWTP2     JUNCTION  -nan(ind)     0.00  5474.42     0  00:00        0.00
  A-MHE-1052-WWTP2     JUNCTION  -nan(ind)     0.00  5472.22     0  00:00        0.00
  A-MHE-1053-WWTP2     JUNCTION  -nan(ind)     0.00  5470.02     0  00:00        0.00
  A-MHE-1054-WWTP2     JUNCTION  -nan(ind)     0.00  5468.42     0  00:00        0.00
  A-MHQ-1055-WWTP2     JUNCTION  -nan(ind)     0.00  5466.13     0  00:00        0.00
  A-MHQ-1056-WWTP2     JUNCTION  -nan(ind)     0.00  5465.33     0  00:00        0.00
  A-MHQ-1057-WWTP2     JUNCTION  -nan(ind)     0.00  5459.83     0  00:00        0.00
  A-MHQ-1058-WWTP2     JUNCTION  -nan(ind)     0.00  5456.33     0  00:00        0.00
  A-MHE-1059-WWTP2     JUNCTION  -nan(ind)     0.00  5476.22     0  00:00        0.00
  A-MHE-1060-WWTP2     JUNCTION  -nan(ind)     0.00  5459.72     0  00:00        0.00
  A-MHE-1061-WWTP2     JUNCTION  -nan(ind)     0.00  5449.82     0  00:00        0.00
  A-MHE-1062-WWTP2     JUNCTION  -nan(ind)     0.00  5443.12     0  00:00        0.00
  A-MHQ-1063-WWTP2     JUNCTION  -nan(ind)     0.00  5457.23     0  00:00        0.00
  A-MHQ-1064-WWTP2     JUNCTION  -nan(ind)     0.00  5453.83     0  00:00        0.00
  A-MHQ-1065-WWTP2     JUNCTION  -nan(ind)     0.00  5449.13     0  00:00        0.00
  A-MHQ-1066-WWTP2     JUNCTION  -nan(ind)     0.00  5450.83     0  00:00        0.00
  A-MHE-1067-WWTP2     JUNCTION  -nan(ind)     0.00  5444.33     0  00:00        0.00
  A-MHE-1068-WWTP2     JUNCTION  -nan(ind)     0.00  5439.93     0  00:00        0.00
  A-MHE-1069-WWTP2     JUNCTION  -nan(ind)     0.00  5433.43     0  00:00        0.00
  A-MHE-1070-WWTP2     JUNCTION  -nan(ind)     0.00  5426.13     0  00:00        0.00
  A-MHQ-1071-WWTP2     JUNCTION  -nan(ind)     0.00  5423.03     0  00:00        0.00
  A-MHQ-1072-WWTP2     JUNCTION  -nan(ind)     0.00  5440.03     0  00:00        0.00
  A-MHQ-1073-WWTP2     JUNCTION  -nan(ind)     0.00  5433.73     0  00:00        0.00
  A-MHQ-1074-WWTP2     JUNCTION  -nan(ind)     0.00  5431.03     0  00:00        0.00
  A-MHQ-1075-WWTP2     JUNCTION  -nan(ind)     0.00  5446.83     0  00:00        0.00
  A-MHQ-1076-WWTP2     JUNCTION  -nan(ind)     0.00  5443.73     0  00:00        0.00
  A-MHQ-1077-WWTP2     JUNCTION  -nan(ind)     0.00  5439.63     0  00:00        0.00
  A-MHQ-S-1078-WWTP2   JUNCTION  -nan(ind)     0.00  5414.73     0  00:00        0.00
  A-MHE-1151-WWTP2     JUNCTION  -nan(ind)     0.00  5450.20     0  00:00        0.00
  A-MHE-1152-WWTP2     JUNCTION  -nan(ind)     0.00  5441.50     0  00:00        0.00
  A-MHE-1153-WWTP2     JUNCTION  -nan(ind)     0.00  5432.10     0  00:00        0.00
  A-MHE-1154-WWTP2     JUNCTION  -nan(ind)     0.00  5427.00     0  00:00        0.00
  A-MHE-1155-WWTP2     JUNCTION  -nan(ind)     0.00  5416.60     0  00:00        0.00
  A-MHE-1156-WWTP2     JUNCTION  -nan(ind)     0.00  5408.60     0  00:00        0.00
  A-MHE-1157-WWTP2     JUNCTION  -nan(ind)     0.00  5402.10     0  00:00        0.00
  A-MHE-1158-WWTP2     JUNCTION  -nan(ind)     0.00  5403.20     0  00:00        0.00
  A-MHE-1159-WWTP2     JUNCTION  -nan(ind)     0.00  5400.90     0  00:00        0.00
  A-MHE-1160-WWTP2     JUNCTION  -nan(ind)     0.00  5423.22     0  00:00        0.00
  A-MHE-1161-WWTP2     JUNCTION  -nan(ind)     0.00  5414.02     0  00:00        0.00
  A-MHE-1162-WWTP2     JUNCTION  -nan(ind)     0.00  5404.52     0  00:00        0.00
  A-MHE-1163-WWTP2     JUNCTION  -nan(ind)     0.00  5396.52     0  00:00        0.00
  A-MHE-1164-WWTP2     JUNCTION  -nan(ind)     0.00  5392.72     0  00:00        0.00
  A-MHE-1165-WWTP2     JUNCTION  -nan(ind)     0.00  5436.32     0  00:00        0.00
  A-MHE-1166-WWTP2     JUNCTION  -nan(ind)     0.00  5429.72     0  00:00        0.00
  A-MHE-1167-WWTP2     JUNCTION  -nan(ind)     0.00  5430.82     0  00:00        0.00
  A-MHE-1168-WWTP2     JUNCTION  -nan(ind)     0.00  5418.82     0  00:00        0.00
  A-MHE-1169-WWTP2     JUNCTION  -nan(ind)     0.00  5406.72     0  00:00        0.00
  A-MHE-1170-WWTP2     JUNCTION  -nan(ind)     0.00  5391.42     0  00:00        0.00
  A-MHE-1171-WWTP2     JUNCTION  -nan(ind)     0.00  5384.02     0  00:00        0.00
  A-MHE-1172-WWTP2     JUNCTION  -nan(ind)     0.00  5379.12     0  00:00        0.00
  A-MHE-1173-WWTP2     JUNCTION  -nan(ind)     0.00  5408.52     0  00:00        0.00
  A-MHE-1174-WWTP2     JUNCTION  -nan(ind)     0.00  5401.22     0  00:00        0.00
  A-MHE-1175-WWTP2     JUNCTION  -nan(ind)     0.00  5395.32     0  00:00        0.00
  A-MHE-1176-WWTP2     JUNCTION  -nan(ind)     0.00  5420.22     0  00:00        0.00
  A-MHE-1177-WWTP2     JUNCTION  -nan(ind)     0.00  5413.72     0  00:00        0.00
  A-MHE-1178-WWTP2     JUNCTION  -nan(ind)     0.00  5407.72     0  00:00        0.00
  A-MHE-1179-WWTP2     JUNCTION  -nan(ind)     0.00  5436.82     0  00:00        0.00
  A-MHE-1180-WWTP2     JUNCTION  -nan(ind)     0.00  5433.62     0  00:00        0.00
  A-MHE-1181-WWTP2     JUNCTION  -nan(ind)     0.00  5421.42     0  00:00        0.00
  A-MHE-1182-WWTP2     JUNCTION  -nan(ind)     0.00  5417.72     0  00:00        0.00
  A-MHQ-S-1195-WWTP2   JUNCTION  -nan(ind)     0.00  5351.12     0  00:00        0.00
  A-MHQ-S-1196-WWTP2   JUNCTION  -nan(ind)     0.00  5359.52     0  00:00        0.00
  A-MHQ-S-1197-WWTP2   JUNCTION  -nan(ind)     0.00  5346.72     0  00:00        0.00
  A-MHQ-S-1198-WWTP2   JUNCTION  -nan(ind)     0.00  5340.82     0  00:00        0.00
  A-MHQ-S-1199-WWTP2   JUNCTION  -nan(ind)     0.00  5355.02     0  00:00        0.00
  A-MHQ-S-1200-WWTP2   JUNCTION  -nan(ind)     0.00  5339.92     0  00:00        0.00
  A-MHQ-S-1201-WWTP2   JUNCTION  -nan(ind)     0.00  5335.19     0  00:00        0.00
  A-MHQ-S-1202-WWTP2   JUNCTION  -nan(ind)     0.00  5331.74     0  00:00        0.00
  A-MHQ-S-1203-WWTP2   JUNCTION  -nan(ind)     0.00  5325.35     0  00:00        0.00
  A-MHQ-S-1204-WWTP2   JUNCTION  -nan(ind)     0.00  5319.21     0  00:00        0.00
  A-MHQ-S-1205-WWTP2   JUNCTION  -nan(ind)     0.00  5323.81     0  00:00        0.00
  A-MHQ-S-1206-WWTP2   JUNCTION  -nan(ind)     0.00  5328.71     0  00:00        0.00
  A-MHQ-S-1207-WWTP2   JUNCTION  -nan(ind)     0.00  5338.11     0  00:00        0.00
  A-MHQ-S-1208-WWTP2   JUNCTION  -nan(ind)     0.00  5354.80     0  00:00        0.00
  A-MHQ-S-1209-WWTP2   JUNCTION  -nan(ind)     0.00  5353.80     0  00:00        0.00
  A-MHQ-S-1210-WWTP2   JUNCTION  -nan(ind)     0.00  5346.20     0  00:00        0.00
  A-MHQ-S-1211-WWTP2   JUNCTION  -nan(ind)     0.00  5349.60     0  00:00        0.00
  A-MHQ-S-1212-WWTP2   JUNCTION  -nan(ind)     0.00  5342.80     0  00:00        0.00
  A-MHQ-S-1213-WWTP2   JUNCTION  -nan(ind)     0.00  5332.60     0  00:00        0.00
  A-MHQ-S-1214-WWTP2   JUNCTION  -nan(ind)     0.00  5328.20     0  00:00        0.00
  A-MHQ-S-1215-WWTP2   JUNCTION  -nan(ind)     0.00  5330.29     0  00:00        0.00
  A-MHQ-S-1216-WWTP2   JUNCTION  -nan(ind)     0.00  5338.70     0  00:00        0.00
  A-MHQ-S-1217-WWTP2   JUNCTION  -nan(ind)     0.00  5341.62     0  00:00        0.00
  A-MHQ-S-1218-WWTP2   JUNCTION  -nan(ind)     0.00  5330.41     0  00:00        0.00
  A-MHQ-S-1219-WWTP2   JUNCTION  -nan(ind)     0.00  5354.72     0  00:00        0.00
  A-MH1289-WWTP2       JUNCTION  -nan(ind)     0.00  5683.78     0  00:00        0.00
  A-MH1290-WWTP2       JUNCTION  -nan(ind)     0.00  5686.41     0  00:00        0.00
  A-MH1291-WWTP2       JUNCTION  -nan(ind)     0.00  5689.41     0  00:00        0.00
  A-MH1292-WWTP2       JUNCTION  -nan(ind)     0.00  5690.91     0  00:00        0.00
  A-MH1293-WWTP2       JUNCTION  -nan(ind)     0.00  5668.88     0  00:00        0.00
  A-MH1294-WWTP2       JUNCTION  -nan(ind)     0.00  5667.97     0  00:00        0.00
  A-MH1295-WWTP2       JUNCTION  -nan(ind)     0.00  5667.52     0  00:00        0.00
  A-MH1296-WWTP2       JUNCTION  -nan(ind)     0.00  5666.21     0  00:00        0.00
  A-MH1297-WWTP2       JUNCTION  -nan(ind)     0.00  5665.70     0  00:00        0.00
  A-MH1298-WWTP2       JUNCTION  -nan(ind)     0.00  5665.16     0  00:00        0.00
  A-MH1299-WWTP2       JUNCTION  -nan(ind)     0.00  5664.11     0  00:00        0.00
  A-MH1300-WWTP2       JUNCTION  -nan(ind)     0.00  5670.78     0  00:00        0.00
  A-MH1301-WWTP2       JUNCTION  -nan(ind)     0.00  5671.78     0  00:00        0.00
  A-MH1302-WWTP2       JUNCTION  -nan(ind)     0.00  5673.28     0  00:00        0.00
  A-MH1303-WWTP2       JUNCTION  -nan(ind)     0.00  5678.78     0  00:00        0.00
  A-MH1304-WWTP2       JUNCTION  -nan(ind)     0.00  5680.78     0  00:00        0.00
  A-MH1305-WWTP2       JUNCTION  -nan(ind)     0.00  5682.78     0  00:00        0.00
  A-MH1306-WWTP2       JUNCTION  -nan(ind)     0.00  5669.41     0  00:00        0.00
  A-MH1307-WWTP2       JUNCTION  -nan(ind)     0.00  5671.91     0  00:00        0.00
  A-MH1308-WWTP2       JUNCTION  -nan(ind)     0.00  5679.41     0  00:00        0.00
  A-MH1309-WWTP2       JUNCTION  -nan(ind)     0.00  5683.91     0  00:00        0.00
  A-MH1310-WWTP2       JUNCTION  -nan(ind)     0.00  5672.91     0  00:00        0.00
  A-MH1311-WWTP2       JUNCTION  -nan(ind)     0.00  5675.91     0  00:00        0.00
  A-MH1312-WWTP2       JUNCTION  -nan(ind)     0.00  5680.41     0  00:00        0.00
  A-MH1313-WWTP2       JUNCTION  -nan(ind)     0.00  5684.91     0  00:00        0.00
  A-MH1340-WWTP2       JUNCTION  -nan(ind)     0.00  5703.12     0  00:00        0.00
  A-MH1341-WWTP2       JUNCTION  -nan(ind)     0.00  5707.32     0  00:00        0.00
  A-MH1342-WWTP2       JUNCTION  -nan(ind)     0.00  5700.02     0  00:00        0.00
  A-MH1343-WWTP2       JUNCTION  -nan(ind)     0.00  5697.42     0  00:00        0.00
  A-MH1344-WWTP2       JUNCTION  -nan(ind)     0.00  5692.62     0  00:00        0.00
  A-MH1345-WWTP2       JUNCTION  -nan(ind)     0.00  5707.12     0  00:00        0.00
  A-MH1346-WWTP2       JUNCTION  -nan(ind)     0.00  5704.12     0  00:00        0.00
  A-MH1347-WWTP2       JUNCTION  -nan(ind)     0.00  5700.12     0  00:00        0.00
  A-MH1348-WWTP2       JUNCTION  -nan(ind)     0.00  5696.62     0  00:00        0.00
  A-MH1349-WWTP2       JUNCTION  -nan(ind)     0.00  5723.82     0  00:00        0.00
  A-MH1350-WWTP2       JUNCTION  -nan(ind)     0.00  5719.82     0  00:00        0.00
  A-MH1351-WWTP2       JUNCTION  -nan(ind)     0.00  5714.12     0  00:00        0.00
  A-MH1352-WWTP2       JUNCTION  -nan(ind)     0.00  5712.02     0  00:00        0.00
  A-MH1353-WWTP2       JUNCTION  -nan(ind)     0.00  5709.42     0  00:00        0.00
  A-MH1354-WWTP2       JUNCTION  -nan(ind)     0.00  5707.12     0  00:00        0.00
  A-MH1355-WWTP2       JUNCTION  -nan(ind)     0.00  5703.42     0  00:00        0.00
  A-MH1356-WWTP2       JUNCTION  -nan(ind)     0.00  5717.32     0  00:00        0.00
  A-MH1357-WWTP2       JUNCTION  -nan(ind)     0.00  5712.52     0  00:00        0.00
  A-MH1358-WWTP2       JUNCTION  -nan(ind)     0.00  5710.72     0  00:00        0.00
  A-MH1359-WWTP2       JUNCTION  -nan(ind)     0.00  5708.92     0  00:00        0.00
  A-MH1360-WWTP2       JUNCTION  -nan(ind)     0.00  5706.32     0  00:00        0.00
  A-MH1361-WWTP2       JUNCTION  -nan(ind)     0.00  5708.02     0  00:00        0.00
  A-MH1362-WWTP2       JUNCTION  -nan(ind)     0.00  5705.02     0  00:00        0.00
  A-MH1363-WWTP2       JUNCTION  -nan(ind)     0.00  5708.12     0  00:00        0.00
  A-MHE-1417-WWTP2     JUNCTION  -nan(ind)     0.00  5481.72     0  00:00        0.00
  A-MHE-1418-WWTP2     JUNCTION  -nan(ind)     0.00  5486.82     0  00:00        0.00
  A-MHE-1419-WWTP2     JUNCTION  -nan(ind)     0.00  5484.60     0  00:00        0.00
  A-MHQ-1420-WWTP2     JUNCTION  -nan(ind)     0.00  5474.63     0  00:00        0.00
  A-MHQ-1421-WWTP2     JUNCTION  -nan(ind)     0.00  5475.83     0  00:00        0.00
  A-MHE-1422-WWTP2     JUNCTION  -nan(ind)     0.00  5485.12     0  00:00        0.00
  A-MHE-1423-WWTP2     JUNCTION  -nan(ind)     0.00  5482.22     0  00:00        0.00
  A-MHE-1424-WWTP2     JUNCTION  -nan(ind)     0.00  5479.82     0  00:00        0.00
  A-MHE-1425-WWTP2     JUNCTION  -nan(ind)     0.00  5478.52     0  00:00        0.00
  A-MHQ-1426-WWTP2     JUNCTION  -nan(ind)     0.00  5471.33     0  00:00        0.00
  A-MHQ-1427-WWTP2     JUNCTION  -nan(ind)     0.00  5473.53     0  00:00        0.00
  A-MHQ-1428-WWTP2     JUNCTION  -nan(ind)     0.00  5465.63     0  00:00        0.00
  A-MHQ-1429-WWTP2     JUNCTION  -nan(ind)     0.00  5462.43     0  00:00        0.00
  A-MHQ-1430-WWTP2     JUNCTION  -nan(ind)     0.00  5466.63     0  00:00        0.00
  A-MHQ-1431-WWTP2     JUNCTION  -nan(ind)     0.00  5469.23     0  00:00        0.00
  A-MHQ-1432-WWTP2     JUNCTION  -nan(ind)     0.00  5473.93     0  00:00        0.00
  A-MHQ-1433-WWTP2     JUNCTION  -nan(ind)     0.00  5459.93     0  00:00        0.00
  A-MHQ-1434-WWTP2     JUNCTION  -nan(ind)     0.00  5470.73     0  00:00        0.00
  A-MHQ-1435-WWTP2     JUNCTION  -nan(ind)     0.00  5473.73     0  00:00        0.00
  A-MHQ-1436-WWTP2     JUNCTION  -nan(ind)     0.00  5483.33     0  00:00        0.00
  A-MHQ-1437-WWTP2     JUNCTION  -nan(ind)     0.00  5481.03     0  00:00        0.00
  A-MHQ-1438-WWTP2     JUNCTION  -nan(ind)     0.00  5478.43     0  00:00        0.00
  A-MHQ-1439-WWTP2     JUNCTION  -nan(ind)     0.00  5471.33     0  00:00        0.00
  A-MHQ-1440-WWTP2     JUNCTION  -nan(ind)     0.00  5474.03     0  00:00        0.00
  A-MHQ-1441-WWTP2     JUNCTION  -nan(ind)     0.00  5472.53     0  00:00        0.00
  A-MHQ-1442-WWTP2     JUNCTION  -nan(ind)     0.00  5471.13     0  00:00        0.00
  A-MHQ-1443-WWTP2     JUNCTION  -nan(ind)     0.00  5470.53     0  00:00        0.00
  A-MHQ-1444-WWTP2     JUNCTION  -nan(ind)     0.00  5468.73     0  00:00        0.00
  A-MHQ-1445-WWTP2     JUNCTION  -nan(ind)     0.00  5463.63     0  00:00        0.00
  A-MHQ-1446-WWTP2     JUNCTION  -nan(ind)     0.00  5461.43     0  00:00        0.00
  A-MHQ-1447-WWTP2     JUNCTION  -nan(ind)     0.00  5452.43     0  00:00        0.00
  A-MHQ-1448-WWTP2     JUNCTION  -nan(ind)     0.00  5451.23     0  00:00        0.00
  A-MHQ-1449-WWTP2     JUNCTION  -nan(ind)     0.00  5448.53     0  00:00        0.00
  A-MHQ-1450-WWTP2     JUNCTION  -nan(ind)     0.00  5472.03     0  00:00        0.00
  A-MHQ-1451-WWTP2     JUNCTION  -nan(ind)     0.00  5466.33     0  00:00        0.00
  A-MHQ-1452-WWTP2     JUNCTION  -nan(ind)     0.00  5461.93     0  00:00        0.00
  A-MHQ-1453-WWTP2     JUNCTION  -nan(ind)     0.00  5460.73     0  00:00        0.00
  A-MHQ-1454-WWTP2     JUNCTION  -nan(ind)     0.00  5459.93     0  00:00        0.00
  A-MHQ-1455-WWTP2     JUNCTION  -nan(ind)     0.00  5472.53     0  00:00        0.00
  A-MH1456-WWTP2       JUNCTION  -nan(ind)     0.00  5699.78     0  00:00        0.00
  A-MH1457-WWTP2       JUNCTION  -nan(ind)     0.00  5697.78     0  00:00        0.00
  A-MH1458-WWTP2       JUNCTION  -nan(ind)     0.00  5689.78     0  00:00        0.00
  A-MH1459-WWTP2       JUNCTION  -nan(ind)     0.00  5686.28     0  00:00        0.00
  A-MH1460-WWTP2       JUNCTION  -nan(ind)     0.00  5683.78     0  00:00        0.00
  A-MH1461-WWTP2       JUNCTION  -nan(ind)     0.00  5685.86     0  00:00        0.00
  A-MH1463-WWTP2       JUNCTION  -nan(ind)     0.00  5685.10     0  00:00        0.00
  A-MH1464-WWTP2       JUNCTION  -nan(ind)     0.00  5683.80     0  00:00        0.00
  A-MH1465-WWTP2       JUNCTION  -nan(ind)     0.00  5682.73     0  00:00        0.00
  A-MH1466-WWTP2       JUNCTION  -nan(ind)     0.00  5680.33     0  00:00        0.00
  A-MH1467-WWTP2       JUNCTION  -nan(ind)     0.00  5687.62     0  00:00        0.00
  A-MH1468-WWTP2       JUNCTION  -nan(ind)     0.00  5691.16     0  00:00        0.00
  A-MH1469-WWTP2       JUNCTION  -nan(ind)     0.00  5691.86     0  00:00        0.00
  A-MH1470-WWTP2       JUNCTION  -nan(ind)     0.00  5693.86     0  00:00        0.00
  A-MH1472-WWTP2       JUNCTION  -nan(ind)     0.00  5695.86     0  00:00        0.00
  A-MH1473-WWTP2       JUNCTION  -nan(ind)     0.00  5705.36     0  00:00        0.00
  A-MH1474-WWTP2       JUNCTION  -nan(ind)     0.00  5705.28     0  00:00        0.00
  A-MH1475-WWTP2       JUNCTION  -nan(ind)     0.00  5697.28     0  00:00        0.00
  A-MH1476-WWTP2       JUNCTION  -nan(ind)     0.00  5689.28     0  00:00        0.00
  A-MH1477-WWTP2       JUNCTION  -nan(ind)     0.00  5687.28     0  00:00        0.00
  A-MH1478-WWTP2       JUNCTION  -nan(ind)     0.00  5696.66     0  00:00        0.00
  A-MH1479-WWTP2       JUNCTION  -nan(ind)     0.00  5695.16     0  00:00        0.00
  A-MH1480-WWTP2       JUNCTION  -nan(ind)     0.00  5685.16     0  00:00        0.00
  A-MH1481-WWTP2       JUNCTION  -nan(ind)     0.00  5675.66     0  00:00        0.00
  A-MH1482-WWTP2       JUNCTION  -nan(ind)     0.00  5674.35     0  00:00        0.00
  A-MH1483-WWTP2       JUNCTION  -nan(ind)     0.00  5674.01     0  00:00        0.00
  A-MH1484-WWTP2       JUNCTION  -nan(ind)     0.00  5672.97     0  00:00        0.00
  A-MH1485-WWTP2       JUNCTION  -nan(ind)     0.00  5680.47     0  00:00        0.00
  A-MH1486-WWTP2       JUNCTION  -nan(ind)     0.00  5679.43     0  00:00        0.00
  A-MH1487-WWTP2       JUNCTION  -nan(ind)     0.00  5678.69     0  00:00        0.00
  A-MH1488-WWTP2       JUNCTION  -nan(ind)     0.00  5676.66     0  00:00        0.00
  A-MH1489-WWTP2       JUNCTION  -nan(ind)     0.00  5678.32     0  00:00        0.00
  A-MH1490-WWTP2       JUNCTION  -nan(ind)     0.00  5680.78     0  00:00        0.00
  A-MH1491-WWTP2       JUNCTION  -nan(ind)     0.00  5673.32     0  00:00        0.00
  A-MH1492-WWTP2       JUNCTION  -nan(ind)     0.00  5672.37     0  00:00        0.00
  A-MH1493-WWTP2       JUNCTION  -nan(ind)     0.00  5672.22     0  00:00        0.00
  A-MH1494-WWTP2       JUNCTION  -nan(ind)     0.00  5683.71     0  00:00        0.00
  A-MH1496-WWTP2       JUNCTION  -nan(ind)     0.00  5695.63     0  00:00        0.00
  A-MH1497-WWTP2       JUNCTION  -nan(ind)     0.00  5698.67     0  00:00        0.00
  A-MH1498-WWTP2       JUNCTION  -nan(ind)     0.00  5692.99     0  00:00        0.00
  A-MH1499-WWTP2       JUNCTION  -nan(ind)     0.00  5689.73     0  00:00        0.00
  A-MH1500-WWTP2       JUNCTION  -nan(ind)     0.00  5694.83     0  00:00        0.00
  A-MH1501-WWTP2       JUNCTION  -nan(ind)     0.00  5698.33     0  00:00        0.00
  A-MH1502-WWTP2       JUNCTION  -nan(ind)     0.00  5692.53     0  00:00        0.00
  A-MH1503-WWTP2       JUNCTION  -nan(ind)     0.00  5693.83     0  00:00        0.00
  A-MH1504-WWTP2       JUNCTION  -nan(ind)     0.00  5697.03     0  00:00        0.00
  A-MH1505-WWTP2       JUNCTION  -nan(ind)     0.00  5698.03     0  00:00        0.00
  A-MH1506-WWTP2       JUNCTION  -nan(ind)     0.00  5699.13     0  00:00        0.00
  A-MH1507-WWTP2       JUNCTION  -nan(ind)     0.00  5699.53     0  00:00        0.00
  A-MH1508-WWTP2       JUNCTION  -nan(ind)     0.00  5697.03     0  00:00        0.00
  A-MH1509-WWTP2       JUNCTION  -nan(ind)     0.00  5696.43     0  00:00        0.00
  A-MH1510-WWTP2       JUNCTION  -nan(ind)     0.00  5695.53     0  00:00        0.00
  A-MH1511-WWTP2       JUNCTION  -nan(ind)     0.00  5698.43     0  00:00        0.00
  A-MH1512-WWTP2       JUNCTION  -nan(ind)     0.00  5696.33     0  00:00        0.00
  A-MH1513-WWTP2       JUNCTION  -nan(ind)     0.00  5698.63     0  00:00        0.00
  A-MH1514-WWTP2       JUNCTION  -nan(ind)     0.00  5700.92     0  00:00        0.00
  A-MH1515-WWTP2       JUNCTION  -nan(ind)     0.00  5697.52     0  00:00        0.00
  A-MH1516-WWTP2       JUNCTION  -nan(ind)     0.00  5694.02     0  00:00        0.00
  A-MH1517-WWTP2       JUNCTION  -nan(ind)     0.00  5690.82     0  00:00        0.00
  A-MH1518-WWTP2       JUNCTION  -nan(ind)     0.00  5684.82     0  00:00        0.00
  A-MH1519-WWTP2       JUNCTION  -nan(ind)     0.00  5680.92     0  00:00        0.00
  A-MH1520-WWTP2       JUNCTION  -nan(ind)     0.00  5683.62     0  00:00        0.00
  A-MH1521-WWTP2       JUNCTION  -nan(ind)     0.00  5695.72     0  00:00        0.00
  A-MH1522-WWTP2       JUNCTION  -nan(ind)     0.00  5695.92     0  00:00        0.00
  A-MH1523-WWTP2       JUNCTION  -nan(ind)     0.00  5700.02     0  00:00        0.00
  A-MH1524-WWTP2       JUNCTION  -nan(ind)     0.00  5684.92     0  00:00        0.00
  A-MH1526-WWTP2       JUNCTION  -nan(ind)     0.00  5689.32     0  00:00        0.00
  A-MH1527-WWTP2       JUNCTION  -nan(ind)     0.00  5686.02     0  00:00        0.00
  A-MH1528-WWTP2       JUNCTION  -nan(ind)     0.00  5689.52     0  00:00        0.00
  A-MH1529-WWTP2       JUNCTION  -nan(ind)     0.00  5686.82     0  00:00        0.00
  A-MH1530-WWTP2       JUNCTION  -nan(ind)     0.00  5703.12     0  00:00        0.00
  A-MHLS6-1531-WWP1    JUNCTION  -nan(ind)     0.00  5243.70     0  00:00        0.00
  A-MHLS6-1532-WWP1    JUNCTION  -nan(ind)     0.00  5242.10     0  00:00        0.00
  A-MHLS6-1533-WWP1    JUNCTION  -nan(ind)     0.00  5240.40     0  00:00        0.00
  A-MHLS6-1534-WWP1    JUNCTION  -nan(ind)     0.00  5236.40     0  00:00        0.00
  A-MHLS6-1535-WWP1    JUNCTION  -nan(ind)     0.00  5239.90     0  00:00        0.00
  A-MHLS6-1536-WWP1    JUNCTION  -nan(ind)     0.00  5241.80     0  00:00        0.00
  A-MHLS6-1537-WWP1    JUNCTION  -nan(ind)     0.00  5243.40     0  00:00        0.00
  A-MHLS6-1538-WWP1    JUNCTION  -nan(ind)     0.00  5244.90     0  00:00        0.00
  A-MHLS6-1539-WWP1    JUNCTION  -nan(ind)     0.00  5244.80     0  00:00        0.00
  A-MH1540-WWTP2       JUNCTION  -nan(ind)     0.00  5681.00     0  00:00        0.00
  A-MH1541-WWTP2       JUNCTION  -nan(ind)     0.00  5678.00     0  00:00        0.00
  A-MH1542-WWTP2       JUNCTION  -nan(ind)     0.00  5672.50     0  00:00        0.00
  A-MH1543-WWTP2       JUNCTION  -nan(ind)     0.00  5669.00     0  00:00        0.00
  A-MH1544-WWTP2       JUNCTION  -nan(ind)     0.00  5664.50     0  00:00        0.00
  A-MH1545-WWTP2       JUNCTION  -nan(ind)     0.00  5661.50     0  00:00        0.00
  A-MH1546-WWTP2       JUNCTION  -nan(ind)     0.00  5657.50     0  00:00        0.00
  A-MH1547-WWTP2       JUNCTION  -nan(ind)     0.00  5678.50     0  00:00        0.00
  A-MH1548-WWTP2       JUNCTION  -nan(ind)     0.00  5675.50     0  00:00        0.00
  A-MH1549-WWTP2       JUNCTION  -nan(ind)     0.00  5674.50     0  00:00        0.00
  A-MH1550-WWTP2       JUNCTION  -nan(ind)     0.00  5669.50     0  00:00        0.00
  A-MH1551-WWTP2       JUNCTION  -nan(ind)     0.00  5679.50     0  00:00        0.00
  A-MH1552-WWTP2       JUNCTION  -nan(ind)     0.00  5680.50     0  00:00        0.00
  A-MH1553-WWTP2       JUNCTION  -nan(ind)     0.00  5682.00     0  00:00        0.00
  A-MH1554-WWTP2       JUNCTION  -nan(ind)     0.00  5677.00     0  00:00        0.00
  A-MH1555-WWTP2       JUNCTION  -nan(ind)     0.00  5681.00     0  00:00        0.00
  A-MH1556-WWTP2       JUNCTION  -nan(ind)     0.00  5671.00     0  00:00        0.00
  A-MH1557-WWTP2       JUNCTION  -nan(ind)     0.00  5673.00     0  00:00        0.00
  A-MH1558-WWTP2       JUNCTION  -nan(ind)     0.00  5674.50     0  00:00        0.00
  A-MH1559-WWTP2       JUNCTION  -nan(ind)     0.00  5677.50     0  00:00        0.00
  A-MH1560-WWTP2       JUNCTION  -nan(ind)     0.00  5684.50     0  00:00        0.00
  A-MH1561-WWTP2       JUNCTION  -nan(ind)     0.00  5668.50     0  00:00        0.00
  A-MH1562-WWTP2       JUNCTION  -nan(ind)     0.00  5669.00     0  00:00        0.00
  A-MH1563-WWTP2       JUNCTION  -nan(ind)     0.00  5673.50     0  00:00        0.00
  A-MH1564-WWTP2       JUNCTION  -nan(ind)     0.00  5663.50     0  00:00        0.00
  A-MH1565-WWTP2       JUNCTION  -nan(ind)     0.00  5665.00     0  00:00        0.00
  A-MH1566-WWTP2       JUNCTION  -nan(ind)     0.00  5667.50     0  00:00        0.00
  A-MH1567-WWTP2       JUNCTION  -nan(ind)     0.00  5655.06     0  00:00        0.00
  A-MH1568-WWTP2       JUNCTION  -nan(ind)     0.00  5653.96     0  00:00        0.00
  A-MH1569-WWTP2       JUNCTION  -nan(ind)     0.00  5651.00     0  00:00        0.00
  A-MH1570-WWTP2       JUNCTION  -nan(ind)     0.00  5653.50     0  00:00        0.00
  A-MH1571-WWTP2       JUNCTION  -nan(ind)     0.00  5656.00     0  00:00        0.00
  A-MH1572-WWTP2       JUNCTION  -nan(ind)     0.00  5659.50     0  00:00        0.00
  A-MH1573-WWTP2       JUNCTION  -nan(ind)     0.00  5661.00     0  00:00        0.00
  A-MH1574-WWTP2       JUNCTION  -nan(ind)     0.00  5663.00     0  00:00        0.00
  A-MH1575-WWTP2       JUNCTION  -nan(ind)     0.00  5665.50     0  00:00        0.00
  A-MH1576-WWTP2       JUNCTION  -nan(ind)     0.00  5669.00     0  00:00        0.00
  A-MH1577-WWTP2       JUNCTION  -nan(ind)     0.00  5656.00     0  00:00        0.00
  A-MH1578-WWTP2       JUNCTION  -nan(ind)     0.00  5645.01     0  00:00        0.00
  A-MH1582-WWTP2       JUNCTION  -nan(ind)     0.00  5650.51     0  00:00        0.00
  A-MH1583-WWTP2       JUNCTION  -nan(ind)     0.00  5655.01     0  00:00        0.00
  A-MH1584-WWTP2       JUNCTION  -nan(ind)     0.00  5643.51     0  00:00        0.00
  A-MH1585-WWTP2       JUNCTION  -nan(ind)     0.00  5643.01     0  00:00        0.00
  A-MH1587-WWTP2       JUNCTION  -nan(ind)     0.00  5639.21     0  00:00        0.00
  A-MH1588-WWTP2       JUNCTION  -nan(ind)     0.00  5638.01     0  00:00        0.00
  A-MH1589-WWTP2       JUNCTION  -nan(ind)     0.00  5639.71     0  00:00        0.00
  A-MH1590-WWTP2       JUNCTION  -nan(ind)     0.00  5640.01     0  00:00        0.00
  A-MH1592-WWTP2       JUNCTION  -nan(ind)     0.00  5641.41     0  00:00        0.00
  A-MH1593-WWTP2       JUNCTION  -nan(ind)     0.00  5647.01     0  00:00        0.00
  A-MH1594-WWTP2       JUNCTION  -nan(ind)     0.00  5643.51     0  00:00        0.00
  A-MH1595-WWTP2       JUNCTION  -nan(ind)     0.00  5642.51     0  00:00        0.00
  A-MH1596-WWTP2       JUNCTION  -nan(ind)     0.00  5645.51     0  00:00        0.00
  A-MH1597-WWTP2       JUNCTION  -nan(ind)     0.00  5675.02     0  00:00        0.00
  A-MH1598-WWTP2       JUNCTION  -nan(ind)     0.00  5673.92     0  00:00        0.00
  A-MH1599-WWTP2       JUNCTION  -nan(ind)     0.00  5669.52     0  00:00        0.00
  A-MH1600-WWTP2       JUNCTION  -nan(ind)     0.00  5665.02     0  00:00        0.00
  A-MH1601-WWTP2       JUNCTION  -nan(ind)     0.00  5662.22     0  00:00        0.00
  A-MH1602-WWTP2       JUNCTION  -nan(ind)     0.00  5661.22     0  00:00        0.00
  A-MH1603-WWTP2       JUNCTION  -nan(ind)     0.00  5656.12     0  00:00        0.00
  A-MH1604-WWTP2       JUNCTION  -nan(ind)     0.00  5655.22     0  00:00        0.00
  A-MH1605-WWTP2       JUNCTION  -nan(ind)     0.00  5652.22     0  00:00        0.00
  A-MH1606-WWTP2       JUNCTION  -nan(ind)     0.00  5650.12     0  00:00        0.00
  A-MH1607-WWTP2       JUNCTION  -nan(ind)     0.00  5648.12     0  00:00        0.00
  A-MH1608-WWTP2       JUNCTION  -nan(ind)     0.00  5644.42     0  00:00        0.00
  A-MH1609-WWTP2       JUNCTION  -nan(ind)     0.00  5648.02     0  00:00        0.00
  A-MH1610-WWTP2       JUNCTION  -nan(ind)     0.00  5657.82     0  00:00        0.00
  A-MH1611-WWTP2       JUNCTION  -nan(ind)     0.00  5658.42     0  00:00        0.00
  A-MH1612-WWTP2       JUNCTION  -nan(ind)     0.00  5660.72     0  00:00        0.00
  A-MH1613-WWTP2       JUNCTION  -nan(ind)     0.00  5657.82     0  00:00        0.00
  A-MH1614-WWTP2       JUNCTION  -nan(ind)     0.00  5649.52     0  00:00        0.00
  A-MH1615-WWTP2       JUNCTION  -nan(ind)     0.00  5649.82     0  00:00        0.00
  A-MH1616-WWTP2       JUNCTION  -nan(ind)     0.00  5692.00     0  00:00        0.00
  A-MH1617-WWTP2       JUNCTION  -nan(ind)     0.00  5685.00     0  00:00        0.00
  A-MH1618-WWTP2       JUNCTION  -nan(ind)     0.00  5678.00     0  00:00        0.00
  A-MH1619-WWTP2       JUNCTION  -nan(ind)     0.00  5675.00     0  00:00        0.00
  A-MH1620-WWTP2       JUNCTION  -nan(ind)     0.00  5667.00     0  00:00        0.00
  A-MH1621-WWTP2       JUNCTION  -nan(ind)     0.00  5675.00     0  00:00        0.00
  A-MH1622-WWTP2       JUNCTION  -nan(ind)     0.00  5666.00     0  00:00        0.00
  A-MH1623-WWTP2       JUNCTION  -nan(ind)     0.00  5699.43     0  00:00        0.00
  A-MH1624-WWTP2       JUNCTION  -nan(ind)     0.00  5697.43     0  00:00        0.00
  A-MH1625-WWTP2       JUNCTION  -nan(ind)     0.00  5694.43     0  00:00        0.00
  A-MH1626-WWTP2       JUNCTION  -nan(ind)     0.00  5689.43     0  00:00        0.00
  A-MH1627-WWTP2       JUNCTION  -nan(ind)     0.00  5677.43     0  00:00        0.00
  A-MH1628-WWTP2       JUNCTION  -nan(ind)     0.00  5680.43     0  00:00        0.00
  A-MH1629-WWTP2       JUNCTION  -nan(ind)     0.00  5682.43     0  00:00        0.00
  A-MH1630-WWTP2       JUNCTION  -nan(ind)     0.00  5682.43     0  00:00        0.00
  A-MH1631-WWTP2       JUNCTION  -nan(ind)     0.00  5679.43     0  00:00        0.00
  A-MH1632-WWTP2       JUNCTION  -nan(ind)     0.00  5688.43     0  00:00        0.00
  A-MH1633-WWTP2       JUNCTION  -nan(ind)     0.00  5673.43     0  00:00        0.00
  A-MH1634-WWTP2       JUNCTION  -nan(ind)     0.00  5670.43     0  00:00        0.00
  A-MH1635-WWTP2       JUNCTION  -nan(ind)     0.00  5668.43     0  00:00        0.00
  A-MH1636-WWTP2       JUNCTION  -nan(ind)     0.00  5665.43     0  00:00        0.00
  A-MH1637-WWTP2       JUNCTION  -nan(ind)     0.00  5664.43     0  00:00        0.00
  A-MH1638-WWTP2       JUNCTION  -nan(ind)     0.00  5664.00     0  00:00        0.00
  A-MH1639-WWTP2       JUNCTION  -nan(ind)     0.00  5659.00     0  00:00        0.00
  A-MH1640-WWTP2       JUNCTION  -nan(ind)     0.00  5679.43     0  00:00        0.00
  A-MH1641-WWTP2       JUNCTION  -nan(ind)     0.00  5663.43     0  00:00        0.00
  A-MH1642-WWTP2       JUNCTION  -nan(ind)     0.00  5650.43     0  00:00        0.00
  A-MH1643-WWTP2       JUNCTION  -nan(ind)     0.00  5673.43     0  00:00        0.00
  A-MH1644-WWTP2       JUNCTION  -nan(ind)     0.00  5653.43     0  00:00        0.00
  A-MH1645-WWTP2       JUNCTION  -nan(ind)     0.00  5652.43     0  00:00        0.00
  A-MH1646-WWTP2       JUNCTION  -nan(ind)     0.00  5651.43     0  00:00        0.00
  A-MH1647-WWTP2       JUNCTION  -nan(ind)     0.00  5637.58     0  00:00        0.00
  A-MH1648-WWTP2       JUNCTION  -nan(ind)     0.00  5632.43     0  00:00        0.00
  A-MH1649-WWTP2       JUNCTION  -nan(ind)     0.00  5626.50     0  00:00        0.00
  A-MH1650-WWTP2       JUNCTION  -nan(ind)     0.00  5621.43     0  00:00        0.00
  A-MH1651-WWTP2       JUNCTION  -nan(ind)     0.00  5617.10     0  00:00        0.00
  A-MH1652-WWTP2       JUNCTION  -nan(ind)     0.00  5649.00     0  00:00        0.00
  A-MH1653-WWTP2       JUNCTION  -nan(ind)     0.00  5645.00     0  00:00        0.00
  A-MH1655-WWTP2       JUNCTION  -nan(ind)     0.00  5640.00     0  00:00        0.00
  A-MH1656-WWTP2       JUNCTION  -nan(ind)     0.00  5635.50     0  00:00        0.00
  A-MH1657-WWTP2       JUNCTION  -nan(ind)     0.00  5640.88     0  00:00        0.00
  A-MH1658-WWTP2       JUNCTION  -nan(ind)     0.00  5638.88     0  00:00        0.00
  A-MH1659-WWTP2       JUNCTION  -nan(ind)     0.00  5639.00     0  00:00        0.00
  A-MH1660-WWTP2       JUNCTION  -nan(ind)     0.00  5640.00     0  00:00        0.00
  A-MH1661-WWTP2       JUNCTION  -nan(ind)     0.00  5642.00     0  00:00        0.00
  A-MH1662-WWTP2       JUNCTION  -nan(ind)     0.00  5644.00     0  00:00        0.00
  A-MH1663-WWTP2       JUNCTION  -nan(ind)     0.00  5647.43     0  00:00        0.00
  A-MH1664-WWTP2       JUNCTION  -nan(ind)     0.00  5645.43     0  00:00        0.00
  A-MH1665-WWTP2       JUNCTION  -nan(ind)     0.00  5643.43     0  00:00        0.00
  A-MH1666-WWTP2       JUNCTION  -nan(ind)     0.00  5642.43     0  00:00        0.00
  A-MH1667-WWTP2       JUNCTION  -nan(ind)     0.00  5640.43     0  00:00        0.00
  A-MH1668-WWTP2       JUNCTION  -nan(ind)     0.00  5634.53     0  00:00        0.00
  A-MH1669-WWTP2       JUNCTION  -nan(ind)     0.00  5655.00     0  00:00        0.00
  A-MH1670-WWTP2       JUNCTION  -nan(ind)     0.00  5651.00     0  00:00        0.00
  A-MH1671-WWTP2       JUNCTION  -nan(ind)     0.00  5649.00     0  00:00        0.00
  A-MH1672-WWTP2       JUNCTION  -nan(ind)     0.00  5647.00     0  00:00        0.00
  A-MH1673-WWTP2       JUNCTION  -nan(ind)     0.00  5658.00     0  00:00        0.00
  A-MH1674-WWTP2       JUNCTION  -nan(ind)     0.00  5657.00     0  00:00        0.00
  A-MH1675-WWTP2       JUNCTION  -nan(ind)     0.00  5656.00     0  00:00        0.00
  A-MH1676-WWTP2       JUNCTION  -nan(ind)     0.00  5657.00     0  00:00        0.00
  A-MH1677-WWTP2       JUNCTION  -nan(ind)     0.00  5653.00     0  00:00        0.00
  A-MH1678-WWTP2       JUNCTION  -nan(ind)     0.00  5648.00     0  00:00        0.00
  A-MH1679-WWTP2       JUNCTION  -nan(ind)     0.00  5645.00     0  00:00        0.00
  A-MH1680-WWTP2       JUNCTION  -nan(ind)     0.00  5641.00     0  00:00        0.00
  A-MH1681-WWTP2       JUNCTION  -nan(ind)     0.00  5646.00     0  00:00        0.00
  A-MH1682-WWTP2       JUNCTION  -nan(ind)     0.00  5648.00     0  00:00        0.00
  A-MH1683-WWTP2       JUNCTION  -nan(ind)     0.00  5648.43     0  00:00        0.00
  A-MH1684-WWTP2       JUNCTION  -nan(ind)     0.00  5631.13     0  00:00        0.00
  A-MH1685-WWTP2       JUNCTION  -nan(ind)     0.00  5628.43     0  00:00        0.00
  A-MH1686-WWTP2       JUNCTION  -nan(ind)     0.00  5625.63     0  00:00        0.00
  A-MH1687-WWTP2       JUNCTION  -nan(ind)     0.00  5622.43     0  00:00        0.00
  A-MH1688-WWTP2       JUNCTION  -nan(ind)     0.00  5647.63     0  00:00        0.00
  A-MH1689-WWTP2       JUNCTION  -nan(ind)     0.00  5642.93     0  00:00        0.00
  A-MH1690-WWTP2       JUNCTION  -nan(ind)     0.00  5639.73     0  00:00        0.00
  A-MH1691-WWTP2       JUNCTION  -nan(ind)     0.00  5637.33     0  00:00        0.00
  A-MH1692-WWTP2       JUNCTION  -nan(ind)     0.00  5641.13     0  00:00        0.00
  A-MH1693-WWTP2       JUNCTION  -nan(ind)     0.00  5642.33     0  00:00        0.00
  A-MH1694-WWTP2       JUNCTION  -nan(ind)     0.00  5640.43     0  00:00        0.00
  A-MH1695-WWTP2       JUNCTION  -nan(ind)     0.00  5638.93     0  00:00        0.00
  A-MH1696-WWTP2       JUNCTION  -nan(ind)     0.00  5626.53     0  00:00        0.00
  A-MH1697-WWTP2       JUNCTION  -nan(ind)     0.00  5637.93     0  00:00        0.00
  A-MH1698-WWTP2       JUNCTION  -nan(ind)     0.00  5633.83     0  00:00        0.00
  A-MH1699-WWTP2       JUNCTION  -nan(ind)     0.00  5632.73     0  00:00        0.00
  A-MH1700-WWTP2       JUNCTION  -nan(ind)     0.00  5639.14     0  00:00        0.00
  A-MH1701-WWTP2       JUNCTION  -nan(ind)     0.00  5636.85     0  00:00        0.00
  A-MH1702-WWTP2       JUNCTION  -nan(ind)     0.00  5644.42     0  00:00        0.00
  A-MH1703-WWTP2       JUNCTION  -nan(ind)     0.00  5647.50     0  00:00        0.00
  A-MH1704-WWTP2       JUNCTION  -nan(ind)     0.00  5654.60     0  00:00        0.00
  A-MH1705-WWTP2       JUNCTION  -nan(ind)     0.00  5655.46     0  00:00        0.00
  A-MH1706-WWTP2       JUNCTION  -nan(ind)     0.00  5656.44     0  00:00        0.00
  A-MH1707-WWTP2       JUNCTION  -nan(ind)     0.00  5658.98     0  00:00        0.00
  A-MH1708-WWTP2       JUNCTION  -nan(ind)     0.00  5661.41     0  00:00        0.00
  A-MH1709-WWTP2       JUNCTION  -nan(ind)     0.00  5673.91     0  00:00        0.00
  A-MH1710-WWTP2       JUNCTION  -nan(ind)     0.00  5676.91     0  00:00        0.00
  A-MH1711-WWTP2       JUNCTION  -nan(ind)     0.00  5680.91     0  00:00        0.00
  A-MH1712-WWTP2       JUNCTION  -nan(ind)     0.00  5684.41     0  00:00        0.00
  A-MH1713-WWTP2       JUNCTION  -nan(ind)     0.00  5687.91     0  00:00        0.00
  A-MH1714-WWTP2       JUNCTION  -nan(ind)     0.00  5689.41     0  00:00        0.00
  A-MH1715-WWTP2       JUNCTION  -nan(ind)     0.00  5689.14     0  00:00        0.00
  A-MH1716-WWTP2       JUNCTION  -nan(ind)     0.00  5687.64     0  00:00        0.00
  A-MH1717-WWTP2       JUNCTION  -nan(ind)     0.00  5683.64     0  00:00        0.00
  A-MH1718-WWTP2       JUNCTION  -nan(ind)     0.00  5678.14     0  00:00        0.00
  A-MH1719-WWTP2       JUNCTION  -nan(ind)     0.00  5674.14     0  00:00        0.00
  A-MH1720-WWTP2       JUNCTION  -nan(ind)     0.00  5672.64     0  00:00        0.00
  A-MH1721-WWTP2       JUNCTION  -nan(ind)     0.00  5667.64     0  00:00        0.00
  A-MH1722-WWTP2       JUNCTION  -nan(ind)     0.00  5661.14     0  00:00        0.00
  A-MH1723-WWTP2       JUNCTION  -nan(ind)     0.00  5655.14     0  00:00        0.00
  A-MH1724-WWTP2       JUNCTION  -nan(ind)     0.00  5646.14     0  00:00        0.00
  A-MH1725-WWTP2       JUNCTION  -nan(ind)     0.00  5643.64     0  00:00        0.00
  A-MH1726-WWTP2       JUNCTION  -nan(ind)     0.00  5653.64     0  00:00        0.00
  A-MH1727-WWTP2       JUNCTION  -nan(ind)     0.00  5657.14     0  00:00        0.00
  A-MH1728-WWTP2       JUNCTION  -nan(ind)     0.00  5659.14     0  00:00        0.00
  A-MH1729-WWTP2       JUNCTION  -nan(ind)     0.00  5662.64     0  00:00        0.00
  A-MH1730-WWTP2       JUNCTION  -nan(ind)     0.00  5669.14     0  00:00        0.00
  A-MH1731-WWTP2       JUNCTION  -nan(ind)     0.00  5673.14     0  00:00        0.00
  A-MH1732-WWTP2       JUNCTION  -nan(ind)     0.00  5679.14     0  00:00        0.00
  A-MH1733-WWTP2       JUNCTION  -nan(ind)     0.00  5648.64     0  00:00        0.00
  A-MH1734-WWTP2       JUNCTION  -nan(ind)     0.00  5651.64     0  00:00        0.00
  A-MH1735-WWTP2       JUNCTION  -nan(ind)     0.00  5656.64     0  00:00        0.00
  A-MH1736-WWTP2       JUNCTION  -nan(ind)     0.00  5659.64     0  00:00        0.00
  A-MH1737-WWTP2       JUNCTION  -nan(ind)     0.00  5683.41     0  00:00        0.00
  A-MH1738-WWTP2       JUNCTION  -nan(ind)     0.00  5682.41     0  00:00        0.00
  A-MH1739-WWTP2       JUNCTION  -nan(ind)     0.00  5654.20     0  00:00        0.00
  A-MH1740-WWTP2       JUNCTION  -nan(ind)     0.00  5681.20     0  00:00        0.00
  A-MH1741-WWTP2       JUNCTION  -nan(ind)     0.00  5692.40     0  00:00        0.00
  A-MH1742-WWTP2       JUNCTION  -nan(ind)     0.00  5701.63     0  00:00        0.00
  A-MH1743-WWTP2       JUNCTION  -nan(ind)     0.00  5705.43     0  00:00        0.00
  A-MH1744-WWTP2       JUNCTION  -nan(ind)     0.00  5710.93     0  00:00        0.00
  A-MH1745-WWTP2       JUNCTION  -nan(ind)     0.00  5696.50     0  00:00        0.00
  A-MH1746-WWTP2       JUNCTION  -nan(ind)     0.00  5694.00     0  00:00        0.00
  A-MH1747-WWTP2       JUNCTION  -nan(ind)     0.00  5688.20     0  00:00        0.00
  A-MH1748-WWTP2       JUNCTION  -nan(ind)     0.00  5669.72     0  00:00        0.00
  A-MH1749-WWTP2       JUNCTION  -nan(ind)     0.00  5668.06     0  00:00        0.00
  A-MH1750-WWTP2       JUNCTION  -nan(ind)     0.00  5664.72     0  00:00        0.00
  A-MH1751-WWTP2       JUNCTION  -nan(ind)     0.00  5660.51     0  00:00        0.00
  A-MH1752-WWTP2       JUNCTION  -nan(ind)     0.00  5656.47     0  00:00        0.00
  A-MH1753-WWTP2       JUNCTION  -nan(ind)     0.00  5645.86     0  00:00        0.00
  A-MH1754-WWTP2       JUNCTION  -nan(ind)     0.00  5642.91     0  00:00        0.00
  A-MH1755-WWTP2       JUNCTION  -nan(ind)     0.00  5686.45     0  00:00        0.00
  A-MH1756-WWTP2       JUNCTION  -nan(ind)     0.00  5689.45     0  00:00        0.00
  A-MH1757-WWTP2       JUNCTION  -nan(ind)     0.00  5682.85     0  00:00        0.00
  A-MH1758-WWTP2       JUNCTION  -nan(ind)     0.00  5679.15     0  00:00        0.00
  A-MH1759-WWTP2       JUNCTION  -nan(ind)     0.00  5675.45     0  00:00        0.00
  A-MH1760-WWTP2       JUNCTION  -nan(ind)     0.00  5669.75     0  00:00        0.00
  A-MH1761-WWTP2       JUNCTION  -nan(ind)     0.00  5668.55     0  00:00        0.00
  A-MH1762-WWTP2       JUNCTION  -nan(ind)     0.00  5664.65     0  00:00        0.00
  A-MH1763-WWTP2       JUNCTION  -nan(ind)     0.00  5657.35     0  00:00        0.00
  A-MH1764-WWTP2       JUNCTION  -nan(ind)     0.00  5656.35     0  00:00        0.00
  A-MH1765-WWTP2       JUNCTION  -nan(ind)     0.00  5653.65     0  00:00        0.00
  A-MH1766-WWTP2       JUNCTION  -nan(ind)     0.00  5645.25     0  00:00        0.00
  A-MH1767-WWTP2       JUNCTION  -nan(ind)     0.00  5670.30     0  00:00        0.00
  A-MH1768-WWTP2       JUNCTION  -nan(ind)     0.00  5672.60     0  00:00        0.00
  A-MH1769-WWTP2       JUNCTION  -nan(ind)     0.00  5680.95     0  00:00        0.00
  A-MH1770-WWTP2       JUNCTION  -nan(ind)     0.00  5679.15     0  00:00        0.00
  A-MH1771-WWTP2       JUNCTION  -nan(ind)     0.00  5677.25     0  00:00        0.00
  A-MH1772-WWTP2       JUNCTION  -nan(ind)     0.00  5675.35     0  00:00        0.00
  A-MH1773-WWTP2       JUNCTION  -nan(ind)     0.00  5672.85     0  00:00        0.00
  A-MH1774-WWTP2       JUNCTION  -nan(ind)     0.00  5672.05     0  00:00        0.00
  A-MH1775-WWTP2       JUNCTION  -nan(ind)     0.00  5666.15     0  00:00        0.00
  A-MH1776-WWTP2       JUNCTION  -nan(ind)     0.00  5659.65     0  00:00        0.00
  A-MH1777-WWTP2       JUNCTION  -nan(ind)     0.00  5654.55     0  00:00        0.00
  A-MH1778-WWTP2       JUNCTION  -nan(ind)     0.00  5647.05     0  00:00        0.00
  A-MH1779-WWTP2       JUNCTION  -nan(ind)     0.00  5670.40     0  00:00        0.00
  A-MH1780-WWTP2       JUNCTION  -nan(ind)     0.00  5663.50     0  00:00        0.00
  A-MH1781-WWTP2       JUNCTION  -nan(ind)     0.00  5655.00     0  00:00        0.00
  A-MH1782-WWTP2       JUNCTION  -nan(ind)     0.00  5652.90     0  00:00        0.00
  A-MH1783-WWTP2       JUNCTION  -nan(ind)     0.00  5665.30     0  00:00        0.00
  A-MH1784-WWTP2       JUNCTION  -nan(ind)     0.00  5670.35     0  00:00        0.00
  A-MH1785-WWTP2       JUNCTION  -nan(ind)     0.00  5667.55     0  00:00        0.00
  A-MH1786-WWTP2       JUNCTION  -nan(ind)     0.00  5664.45     0  00:00        0.00
  A-MH1787-WWTP2       JUNCTION  -nan(ind)     0.00  5660.45     0  00:00        0.00
  A-MH1788-WWTP2       JUNCTION  -nan(ind)     0.00  5656.45     0  00:00        0.00
  A-MH1789-WWTP2       JUNCTION  -nan(ind)     0.00  5648.95     0  00:00        0.00
  A-MH1790-WWTP2       JUNCTION  -nan(ind)     0.00  5663.20     0  00:00        0.00
  A-MH1791-WWTP2       JUNCTION  -nan(ind)     0.00  5663.45     0  00:00        0.00
  A-MH1792-WWTP2       JUNCTION  -nan(ind)     0.00  5661.25     0  00:00        0.00
  A-MH1793-WWTP2       JUNCTION  -nan(ind)     0.00  5654.85     0  00:00        0.00
  A-MH1794-WWTP2       JUNCTION  -nan(ind)     0.00  5650.25     0  00:00        0.00
  A-MH1795-WWTP2       JUNCTION  -nan(ind)     0.00  5662.55     0  00:00        0.00
  A-MH1796-WWTP2       JUNCTION  -nan(ind)     0.00  5659.95     0  00:00        0.00
  A-MH1797-WWTP2       JUNCTION  -nan(ind)     0.00  5642.65     0  00:00        0.00
  A-MH1798-WWTP2       JUNCTION  -nan(ind)     0.00  5639.65     0  00:00        0.00
  A-MHQ-1799-WWTP2     JUNCTION  -nan(ind)     0.00  5177.50     0  00:00        0.00
  A-MHQ-1800-WWTP2     JUNCTION  -nan(ind)     0.00  5182.50     0  00:00        0.00
  A-MHQ-1801-WWTP2     JUNCTION  -nan(ind)     0.00  5185.50     0  00:00        0.00
  A-MHQ-1802-WWTP2     JUNCTION  -nan(ind)     0.00  5189.50     0  00:00        0.00
  A-MHQ-1803-WWTP2     JUNCTION  -nan(ind)     0.00  5200.00     0  00:00        0.00
  A-MHQ-1804-WWTP2     JUNCTION  -nan(ind)     0.00  5193.50     0  00:00        0.00
  A-MHQ-1805-WWTP2     JUNCTION  -nan(ind)     0.00  5169.50     0  00:00        0.00
  A-MHQ-1806-WWTP2     JUNCTION  -nan(ind)     0.00  5161.50     0  00:00        0.00
  A-MHQ-1807-WWTP2     JUNCTION  -nan(ind)     0.00  5152.50     0  00:00        0.00
  A-MHQ-1808-WWTP2     JUNCTION  -nan(ind)     0.00  5150.30     0  00:00        0.00
  A-MHQ-1809-WWTP2     JUNCTION  -nan(ind)     0.00  5153.50     0  00:00        0.00
  A-MHQ-1810-WWTP2     JUNCTION  -nan(ind)     0.00  5155.50     0  00:00        0.00
  A-MHQ-1811-WWTP2     JUNCTION  -nan(ind)     0.00  5163.20     0  00:00        0.00
  A-MHQ-1812-WWTP2     JUNCTION  -nan(ind)     0.00  5167.50     0  00:00        0.00
  A-MHQ-1813-WWTP2     JUNCTION  -nan(ind)     0.00  5171.60     0  00:00        0.00
  A-MHQ-1814-WWTP2     JUNCTION  -nan(ind)     0.00  5173.50     0  00:00        0.00
  A-MHQ-1815-WWTP2     JUNCTION  -nan(ind)     0.00  5176.90     0  00:00        0.00
  A-MHQ-1816-WWTP2     JUNCTION  -nan(ind)     0.00  5178.50     0  00:00        0.00
  A-MHQ-1817-WWTP2     JUNCTION  -nan(ind)     0.00  5179.10     0  00:00        0.00
  A-MHQ-1818-WWTP2     JUNCTION  -nan(ind)     0.00  5179.70     0  00:00        0.00
  A-MHQ-1819-WWTP2     JUNCTION  -nan(ind)     0.00  5182.50     0  00:00        0.00
  A-MHQ-1820-WWTP2     JUNCTION  -nan(ind)     0.00  5192.00     0  00:00        0.00
  A-MHQ-1821-WWTP2     JUNCTION  -nan(ind)     0.00  5198.00     0  00:00        0.00
  A-MHQ-1822-WWTP2     JUNCTION  -nan(ind)     0.00  5202.50     0  00:00        0.00
  A-MHQ-1823-WWTP2     JUNCTION  -nan(ind)     0.00  5209.00     0  00:00        0.00
  A-MHQ-1824-WWTP2     JUNCTION  -nan(ind)     0.00  5202.00     0  00:00        0.00
  A-MHQ-1825-WWTP2     JUNCTION  -nan(ind)     0.00  5209.00     0  00:00        0.00
  A-MHQ-1826-WWTP2     JUNCTION  -nan(ind)     0.00  5180.00     0  00:00        0.00
  A-MHQ-1827-WWTP2     JUNCTION  -nan(ind)     0.00  5182.50     0  00:00        0.00
  A-MHQ-1828-WWTP2     JUNCTION  -nan(ind)     0.00  5205.50     0  00:00        0.00
  A-MHQ-1829-WWTP2     JUNCTION  -nan(ind)     0.00  5209.90     0  00:00        0.00
  A-MHQ-1830-WWTP2     JUNCTION  -nan(ind)     0.00  5197.00     0  00:00        0.00
  A-MHQ-1831-WWTP2     JUNCTION  -nan(ind)     0.00  5192.50     0  00:00        0.00
  A-MHQ-1832-WWTP2     JUNCTION  -nan(ind)     0.00  5181.50     0  00:00        0.00
  A-MHQ-1833-WWTP2     JUNCTION  -nan(ind)     0.00  5178.00     0  00:00        0.00
  A-MHQ-1834-WWTP2     JUNCTION  -nan(ind)     0.00  5190.50     0  00:00        0.00
  A-MHQ-1836-WWTP2     JUNCTION  -nan(ind)     0.00  5186.00     0  00:00        0.00
  A-MHQ-1837-WWTP2     JUNCTION  -nan(ind)     0.00  5180.00     0  00:00        0.00
  A-MHQ-1839-WWTP2     JUNCTION  -nan(ind)     0.00  5175.50     0  00:00        0.00
  A-MH1840-WWTP2       JUNCTION  -nan(ind)     0.00  5666.56     0  00:00        0.00
  A-MH1841-WWTP2       JUNCTION  -nan(ind)     0.00  5665.56     0  00:00        0.00
  A-MH1842-WWTP2       JUNCTION  -nan(ind)     0.00  5663.56     0  00:00        0.00
  A-MH1844-WWTP2       JUNCTION  -nan(ind)     0.00  5668.56     0  00:00        0.00
  A-MH1845-WWTP2       JUNCTION  -nan(ind)     0.00  5662.56     0  00:00        0.00
  A-MH1846-WWTP2       JUNCTION  -nan(ind)     0.00  5661.56     0  00:00        0.00
  A-MH1847-WWTP2       JUNCTION  -nan(ind)     0.00  5657.56     0  00:00        0.00
  A-MH1848-WWTP2       JUNCTION  -nan(ind)     0.00  5654.56     0  00:00        0.00
  A-MH1849-WWTP2       JUNCTION  -nan(ind)     0.00  5651.56     0  00:00        0.00
  A-MH1850-WWTP2       JUNCTION  -nan(ind)     0.00  5650.56     0  00:00        0.00
  A-MH1851-WWTP2       JUNCTION  -nan(ind)     0.00  5649.56     0  00:00        0.00
  A-MH1852-WWTP2       JUNCTION  -nan(ind)     0.00  5655.56     0  00:00        0.00
  A-MH1853-WWTP2       JUNCTION  -nan(ind)     0.00  5647.56     0  00:00        0.00
  A-MH1854-WWTP2       JUNCTION  -nan(ind)     0.00  5659.56     0  00:00        0.00
  A-MH1855-WWTP2       JUNCTION  -nan(ind)     0.00  5646.56     0  00:00        0.00
  A-MH1856-WWTP2       JUNCTION  -nan(ind)     0.00  5653.26     0  00:00        0.00
  A-MH1857-WWTP2       JUNCTION  -nan(ind)     0.00  5650.96     0  00:00        0.00
  A-MH1858-WWTP2       JUNCTION  -nan(ind)     0.00  5649.46     0  00:00        0.00
  A-MH1859-WWTP2       JUNCTION  -nan(ind)     0.00  5639.55     0  00:00        0.00
  A-MH1860-WWTP2       JUNCTION  -nan(ind)     0.00  5647.25     0  00:00        0.00
  A-MH1861-WWTP2       JUNCTION  -nan(ind)     0.00  5655.85     0  00:00        0.00
  A-MH1862-WWTP2       JUNCTION  -nan(ind)     0.00  5664.55     0  00:00        0.00
  A-MH1863-WWTP2       JUNCTION  -nan(ind)     0.00  5671.45     0  00:00        0.00
  A-MH1864-WWTP2       JUNCTION  -nan(ind)     0.00  5635.76     0  00:00        0.00
  A-MH1865-WWTP2       JUNCTION  -nan(ind)     0.00  5643.46     0  00:00        0.00
  A-MH1866-WWTP2       JUNCTION  -nan(ind)     0.00  5637.86     0  00:00        0.00
  A-MH1867-WWTP2       JUNCTION  -nan(ind)     0.00  5646.46     0  00:00        0.00
  A-MH1868-WWTP2       JUNCTION  -nan(ind)     0.00  5641.76     0  00:00        0.00
  A-MH1869-WWTP2       JUNCTION  -nan(ind)     0.00  5634.15     0  00:00        0.00
  A-MH1870-WWTP2       JUNCTION  -nan(ind)     0.00  5632.35     0  00:00        0.00
  A-MH1871-WWTP2       JUNCTION  -nan(ind)     0.00  5631.52     0  00:00        0.00
[...]
  CO-7801                 1.37   -nan(ind)  -nan(ind)  -nan(ind)  -nan(ind)  -nan(ind)  -nan(ind)  -nan(ind)  -nan(ind)  -nan(ind)
  CO-7827                 1.04   -nan(ind)  -nan(ind)  -nan(ind)  -nan(ind)  -nan(ind)  -nan(ind)  -nan(ind)  -nan(ind)  -nan(ind)
  CO-7565                 1.11   -nan(ind)  -nan(ind)  -nan(ind)  -nan(ind)  -nan(ind)  -nan(ind)  -nan(ind)  -nan(ind)  -nan(ind)
  CO-7643                 1.35   -nan(ind)  -nan(ind)  -nan(ind)  -nan(ind)  -nan(ind)  -nan(ind)  -nan(ind)  -nan(ind)  -nan(ind)
  CO-7666                 1.22   -nan(ind)  -nan(ind)  -nan(ind)  -nan(ind)  -nan(ind)  -nan(ind)  -nan(ind)  -nan(ind)  -nan(ind)
  CO-7728                 1.37   -nan(ind)  -nan(ind)  -nan(ind)  -nan(ind)  -nan(ind)  -nan(ind)  -nan(ind)  -nan(ind)  -nan(ind)
  CO-7583                 1.01   -nan(ind)  -nan(ind)  -nan(ind)  -nan(ind)  -nan(ind)  -nan(ind)  -nan(ind)  -nan(ind)  -nan(ind)
  CO-7672                 1.05   -nan(ind)  -nan(ind)  -nan(ind)  -nan(ind)  -nan(ind)  -nan(ind)  -nan(ind)  -nan(ind)  -nan(ind)
  CO-7571                 1.00   -nan(ind)  -nan(ind)  -nan(ind)  -nan(ind)  -nan(ind)  -nan(ind)  -nan(ind)  -nan(ind)  -nan(ind)
  CO-7714                 1.00   -nan(ind)  -nan(ind)  -nan(ind)  -nan(ind)  -nan(ind)  -nan(ind)  -nan(ind)  -nan(ind)  -nan(ind)
  CO-7759                 1.49   -nan(ind)  -nan(ind)  -nan(ind)  -nan(ind)  -nan(ind)  -nan(ind)  -nan(ind)  -nan(ind)  -nan(ind)
  CO-7748                 1.39   -nan(ind)  -nan(ind)  -nan(ind)  -nan(ind)  -nan(ind)  -nan(ind)  -nan(ind)  -nan(ind)  -nan(ind)
  CO-7830                 1.13   -nan(ind)  -nan(ind)  -nan(ind)  -nan(ind)  -nan(ind)  -nan(ind)  -nan(ind)  -nan(ind)  -nan(ind)
  CO-7802                 1.09   -nan(ind)  -nan(ind)  -nan(ind)  -nan(ind)  -nan(ind)  -nan(ind)  -nan(ind)  -nan(ind)  -nan(ind)
  CO-7662                 1.20   -nan(ind)  -nan(ind)  -nan(ind)  -nan(ind)  -nan(ind)  -nan(ind)  -nan(ind)  -nan(ind)  -nan(ind)
  CO-7638                 1.00   -nan(ind)  -nan(ind)  -nan(ind)  -nan(ind)  -nan(ind)  -nan(ind)  -nan(ind)  -nan(ind)  -nan(ind)
  CO-7568                 1.11   -nan(ind)  -nan(ind)  -nan(ind)  -nan(ind)  -nan(ind)  -nan(ind)  -nan(ind)  -nan(ind)  -nan(ind)
  CO-7828                 1.07   -nan(ind)  -nan(ind)  -nan(ind)  -nan(ind)  -nan(ind)  -nan(ind)  -nan(ind)  -nan(ind)  -nan(ind)
  CO-7756                 1.00   -nan(ind)  -nan(ind)  -nan(ind)  -nan(ind)  -nan(ind)  -nan(ind)  -nan(ind)  -nan(ind)  -nan(ind)
  CO-7606                 1.00   -nan(ind)  -nan(ind)  -nan(ind)  -nan(ind)  -nan(ind)  -nan(ind)  -nan(ind)  -nan(ind)  -nan(ind)
  CO-7813                 1.39   -nan(ind)  -nan(ind)  -nan(ind)  -nan(ind)  -nan(ind)  -nan(ind)  -nan(ind)  -nan(ind)  -nan(ind)
  CO-7746                 1.29   -nan(ind)  -nan(ind)  -nan(ind)  -nan(ind)  -nan(ind)  -nan(ind)  -nan(ind)  -nan(ind)  -nan(ind)
  CO-7812                 1.11   -nan(ind)  -nan(ind)  -nan(ind)  -nan(ind)  -nan(ind)  -nan(ind)  -nan(ind)  -nan(ind)  -nan(ind)
  CO-7676                 1.00   -nan(ind)  -nan(ind)  -nan(ind)  -nan(ind)  -nan(ind)  -nan(ind)  -nan(ind)  -nan(ind)  -nan(ind)
  CO-7564                 1.00   -nan(ind)  -nan(ind)  -nan(ind)  -nan(ind)  -nan(ind)  -nan(ind)  -nan(ind)  -nan(ind)  -nan(ind)
  CO-7624                 1.00   -nan(ind)  -nan(ind)  -nan(ind)  -nan(ind)  -nan(ind)  -nan(ind)  -nan(ind)  -nan(ind)  -nan(ind)
  CO-7704                 1.00   -nan(ind)  -nan(ind)  -nan(ind)  -nan(ind)  -nan(ind)  -nan(ind)  -nan(ind)  -nan(ind)  -nan(ind)
  CO-7703                 1.00   -nan(ind)  -nan(ind)  -nan(ind)  -nan(ind)  -nan(ind)  -nan(ind)  -nan(ind)  -nan(ind)  -nan(ind)
  CO-7702                 1.03   -nan(ind)  -nan(ind)  -nan(ind)  -nan(ind)  -nan(ind)  -nan(ind)  -nan(ind)  -nan(ind)  -nan(ind)
  CO-7684                 1.00   -nan(ind)  -nan(ind)  -nan(ind)  -nan(ind)  -nan(ind)  -nan(ind)  -nan(ind)  -nan(ind)  -nan(ind)
  CO-7584                 1.00   -nan(ind)  -nan(ind)  -nan(ind)  -nan(ind)  -nan(ind)  -nan(ind)  -nan(ind)  -nan(ind)  -nan(ind)
  CO-7572                 1.00   -nan(ind)  -nan(ind)  -nan(ind)  -nan(ind)  -nan(ind)  -nan(ind)  -nan(ind)  -nan(ind)  -nan(ind)
  CO-7573                 1.00   -nan(ind)  -nan(ind)  -nan(ind)  -nan(ind)  -nan(ind)  -nan(ind)  -nan(ind)  -nan(ind)  -nan(ind)
  CO-7609                 1.00   -nan(ind)  -nan(ind)  -nan(ind)  -nan(ind)  -nan(ind)  -nan(ind)  -nan(ind)  -nan(ind)  -nan(ind)
  CO-7610                 1.00   -nan(ind)  -nan(ind)  -nan(ind)  -nan(ind)  -nan(ind)  -nan(ind)  -nan(ind)  -nan(ind)  -nan(ind)
  CO-7608                 1.00   -nan(ind)  -nan(ind)  -nan(ind)  -nan(ind)  -nan(ind)  -nan(ind)  -nan(ind)  -nan(ind)  -nan(ind)
  CO-7611                 1.00   -nan(ind)  -nan(ind)  -nan(ind)  -nan(ind)  -nan(ind)  -nan(ind)  -nan(ind)  -nan(ind)  -nan(ind)
  CO-7607                 1.00   -nan(ind)  -nan(ind)  -nan(ind)  -nan(ind)  -nan(ind)  -nan(ind)  -nan(ind)  -nan(ind)  -nan(ind)
  CO-7567                 1.00   -nan(ind)  -nan(ind)  -nan(ind)  -nan(ind)  -nan(ind)  -nan(ind)  -nan(ind)  -nan(ind)  -nan(ind)
  CO-7566                 1.03   -nan(ind)  -nan(ind)  -nan(ind)  -nan(ind)  -nan(ind)  -nan(ind)  -nan(ind)  -nan(ind)  -nan(ind)
  CO-7723                 1.00   -nan(ind)  -nan(ind)  -nan(ind)  -nan(ind)  -nan(ind)  -nan(ind)  -nan(ind)  -nan(ind)  -nan(ind)
  CO-7719                 1.00   -nan(ind)  -nan(ind)  -nan(ind)  -nan(ind)  -nan(ind)  -nan(ind)  -nan(ind)  -nan(ind)  -nan(ind)
  CO-7721                 1.00   -nan(ind)  -nan(ind)  -nan(ind)  -nan(ind)  -nan(ind)  -nan(ind)  -nan(ind)  -nan(ind)  -nan(ind)
  CO-7716                 1.00   -nan(ind)  -nan(ind)  -nan(ind)  -nan(ind)  -nan(ind)  -nan(ind)  -nan(ind)  -nan(ind)  -nan(ind)
  CO-7718                 1.00   -nan(ind)  -nan(ind)  -nan(ind)  -nan(ind)  -nan(ind)  -nan(ind)  -nan(ind)  -nan(ind)  -nan(ind)
  CO-7715                 1.00   -nan(ind)  -nan(ind)  -nan(ind)  -nan(ind)  -nan(ind)  -nan(ind)  -nan(ind)  -nan(ind)  -nan(ind)
  CO-7722                 1.06   -nan(ind)  -nan(ind)  -nan(ind)  -nan(ind)  -nan(ind)  -nan(ind)  -nan(ind)  -nan(ind)  -nan(ind)
  CO-7720                 1.00   -nan(ind)  -nan(ind)  -nan(ind)  -nan(ind)  -nan(ind)  -nan(ind)  -nan(ind)  -nan(ind)  -nan(ind)
  CO-7717                 1.00   -nan(ind)  -nan(ind)  -nan(ind)  -nan(ind)  -nan(ind)  -nan(ind)  -nan(ind)  -nan(ind)  -nan(ind)
  CO-7724                 1.10   -nan(ind)  -nan(ind)  -nan(ind)  -nan(ind)  -nan(ind)  -nan(ind)  -nan(ind)  -nan(ind)  -nan(ind)
  CO-7752                 1.00   -nan(ind)  -nan(ind)  -nan(ind)  -nan(ind)  -nan(ind)  -nan(ind)  -nan(ind)  -nan(ind)  -nan(ind)
  CO-7587                 1.02   -nan(ind)  -nan(ind)  -nan(ind)  -nan(ind)  -nan(ind)  -nan(ind)  -nan(ind)  -nan(ind)  -nan(ind)
  CO-7569                 1.00   -nan(ind)  -nan(ind)  -nan(ind)  -nan(ind)  -nan(ind)  -nan(ind)  -nan(ind)  -nan(ind)  -nan(ind)
  CO-7675                 1.00   -nan(ind)  -nan(ind)  -nan(ind)  -nan(ind)  -nan(ind)  -nan(ind)  -nan(ind)  -nan(ind)  -nan(ind)
  CO-7686                 1.00   -nan(ind)  -nan(ind)  -nan(ind)  -nan(ind)  -nan(ind)  -nan(ind)  -nan(ind)  -nan(ind)  -nan(ind)
  CO-7705                 1.00   -nan(ind)  -nan(ind)  -nan(ind)  -nan(ind)  -nan(ind)  -nan(ind)  -nan(ind)  -nan(ind)  -nan(ind)
  CO-7586                 1.00   -nan(ind)  -nan(ind)  -nan(ind)  -nan(ind)  -nan(ind)  -nan(ind)  -nan(ind)  -nan(ind)  -nan(ind)
  CO-7682                 1.00   -nan(ind)  -nan(ind)  -nan(ind)  -nan(ind)  -nan(ind)  -nan(ind)  -nan(ind)  -nan(ind)  -nan(ind)
  CO-7730                 1.00   -nan(ind)  -nan(ind)  -nan(ind)  -nan(ind)  -nan(ind)  -nan(ind)  -nan(ind)  -nan(ind)  -nan(ind)
  CO-7585                 1.00   -nan(ind)  -nan(ind)  -nan(ind)  -nan(ind)  -nan(ind)  -nan(ind)  -nan(ind)  -nan(ind)  -nan(ind)
  CO-7732                 1.00   -nan(ind)  -nan(ind)  -nan(ind)  -nan(ind)  -nan(ind)  -nan(ind)  -nan(ind)  -nan(ind)  -nan(ind)
  CO-7599                 1.00   -nan(ind)  -nan(ind)  -nan(ind)  -nan(ind)  -nan(ind)  -nan(ind)  -nan(ind)  -nan(ind)  -nan(ind)
  CO-7762                 1.00   -nan(ind)  -nan(ind)  -nan(ind)  -nan(ind)  -nan(ind)  -nan(ind)  -nan(ind)  -nan(ind)  -nan(ind)
  CO-7674                 1.00   -nan(ind)  -nan(ind)  -nan(ind)  -nan(ind)  -nan(ind)  -nan(ind)  -nan(ind)  -nan(ind)  -nan(ind)
  CO-7731                 1.00   -nan(ind)  -nan(ind)  -nan(ind)  -nan(ind)  -nan(ind)  -nan(ind)  -nan(ind)  -nan(ind)  -nan(ind)
  CO-CO-93                3.22   -nan(ind)  -nan(ind)  -nan(ind)  -nan(ind)  -nan(ind)  -nan(ind)  -nan(ind)  -nan(ind)  -nan(ind)
  CO-CO-94                2.89   -nan(ind)  -nan(ind)  -nan(ind)  -nan(ind)  -nan(ind)  -nan(ind)  -nan(ind)  -nan(ind)  -nan(ind)
  CO-CO-96                1.27   -nan(ind)  -nan(ind)  -nan(ind)  -nan(ind)  -nan(ind)  -nan(ind)  -nan(ind)  -nan(ind)  -nan(ind)
  CO-CO-99                2.67   -nan(ind)  -nan(ind)  -nan(ind)  -nan(ind)  -nan(ind)  -nan(ind)  -nan(ind)  -nan(ind)  -nan(ind)
  CO-CO-102               2.11   -nan(ind)  -nan(ind)  -nan(ind)  -nan(ind)  -nan(ind)  -nan(ind)  -nan(ind)  -nan(ind)  -nan(ind)
  CO-CO-104               2.44   -nan(ind)  -nan(ind)  -nan(ind)  -nan(ind)  -nan(ind)  -nan(ind)  -nan(ind)  -nan(ind)  -nan(ind)
  CO-CO-105              10.07   -nan(ind)  -nan(ind)  -nan(ind)  -nan(ind)  -nan(ind)  -nan(ind)  -nan(ind)  -nan(ind)  -nan(ind)
  CO-CO-106               4.23   -nan(ind)  -nan(ind)  -nan(ind)  -nan(ind)  -nan(ind)  -nan(ind)  -nan(ind)  -nan(ind)  -nan(ind)
  CO-CO-107               1.97   -nan(ind)  -nan(ind)  -nan(ind)  -nan(ind)  -nan(ind)  -nan(ind)  -nan(ind)  -nan(ind)  -nan(ind)
  CO-110                 15.42   -nan(ind)  -nan(ind)  -nan(ind)  -nan(ind)  -nan(ind)  -nan(ind)  -nan(ind)  -nan(ind)  -nan(ind)
  CO-111                144.94   -nan(ind)  -nan(ind)  -nan(ind)  -nan(ind)  -nan(ind)  -nan(ind)  -nan(ind)  -nan(ind)  -nan(ind)
  PP-1                    2.50   -nan(ind)  -nan(ind)  -nan(ind)  -nan(ind)  -nan(ind)  -nan(ind)  -nan(ind)  -nan(ind)  -nan(ind)
  PP-2                    8.54   -nan(ind)  -nan(ind)  -nan(ind)  -nan(ind)  -nan(ind)  -nan(ind)  -nan(ind)  -nan(ind)  -nan(ind)
  PP-4                    1.02   -nan(ind)  -nan(ind)  -nan(ind)  -nan(ind)  -nan(ind)  -nan(ind)  -nan(ind)  -nan(ind)  -nan(ind)
  PP-6                    1.64   -nan(ind)  -nan(ind)  -nan(ind)  -nan(ind)  -nan(ind)  -nan(ind)  -nan(ind)  -nan(ind)  -nan(ind)
  PP-12                   1.47   -nan(ind)  -nan(ind)  -nan(ind)  -nan(ind)  -nan(ind)  -nan(ind)  -nan(ind)  -nan(ind)  -nan(ind)
  PP-15                   1.18   -nan(ind)  -nan(ind)  -nan(ind)  -nan(ind)  -nan(ind)  -nan(ind)  -nan(ind)  -nan(ind)  -nan(ind)
  PP-18                   1.00   -nan(ind)  -nan(ind)  -nan(ind)  -nan(ind)  -nan(ind)  -nan(ind)  -nan(ind)  -nan(ind)  -nan(ind)
  PP-19                   1.43   -nan(ind)  -nan(ind)  -nan(ind)  -nan(ind)  -nan(ind)  -nan(ind)  -nan(ind)  -nan(ind)  -nan(ind)
  PP-25                   1.00   -nan(ind)  -nan(ind)  -nan(ind)  -nan(ind)  -nan(ind)  -nan(ind)  -nan(ind)  -nan(ind)  -nan(ind)
  PP-26                   1.00   -nan(ind)  -nan(ind)  -nan(ind)  -nan(ind)  -nan(ind)  -nan(ind)  -nan(ind)  -nan(ind)  -nan(ind)
  PP-27                   1.00   -nan(ind)  -nan(ind)  -nan(ind)  -nan(ind)  -nan(ind)  -nan(ind)  -nan(ind)  -nan(ind)  -nan(ind)
  PP-28                   1.00   -nan(ind)  -nan(ind)  -nan(ind)  -nan(ind)  -nan(ind)  -nan(ind)  -nan(ind)  -nan(ind)  -nan(ind)
  PP-29                   1.00   -nan(ind)  -nan(ind)  -nan(ind)  -nan(ind)  -nan(ind)  -nan(ind)  -nan(ind)  -nan(ind)  -nan(ind)
  PP-32                   1.00   -nan(ind)  -nan(ind)  -nan(ind)  -nan(ind)  -nan(ind)  -nan(ind)  -nan(ind)  -nan(ind)  -nan(ind)
  PP-33                   1.00   -nan(ind)  -nan(ind)  -nan(ind)  -nan(ind)  -nan(ind)  -nan(ind)  -nan(ind)  -nan(ind)  -nan(ind)
  PP-37                   1.00   -nan(ind)  -nan(ind)  -nan(ind)  -nan(ind)  -nan(ind)  -nan(ind)  -nan(ind)  -nan(ind)  -nan(ind)
  PP-39                   1.00   -nan(ind)  -nan(ind)  -nan(ind)  -nan(ind)  -nan(ind)  -nan(ind)  -nan(ind)  -nan(ind)  -nan(ind)
  PP-40                   1.00   -nan(ind)  -nan(ind)  -nan(ind)  -nan(ind)  -nan(ind)  -nan(ind)  -nan(ind)  -nan(ind)  -nan(ind)
  PP-41                   1.00   -nan(ind)  -nan(ind)  -nan(ind)  -nan(ind)  -nan(ind)  -nan(ind)  -nan(ind)  -nan(ind)  -nan(ind)
  PP-42                   1.00   -nan(ind)  -nan(ind)  -nan(ind)  -nan(ind)  -nan(ind)  -nan(ind)  -nan(ind)  -nan(ind)  -nan(ind)
  PP-43                   1.00   -nan(ind)  -nan(ind)  -nan(ind)  -nan(ind)  -nan(ind)  -nan(ind)  -nan(ind)  -nan(ind)  -nan(ind)
  PP-44                   1.00   -nan(ind)  -nan(ind)  -nan(ind)  -nan(ind)  -nan(ind)  -nan(ind)  -nan(ind)  -nan(ind)  -nan(ind)
  PP-45                   1.00   -nan(ind)  -nan(ind)  -nan(ind)  -nan(ind)  -nan(ind)  -nan(ind)  -nan(ind)  -nan(ind)  -nan(ind)
  PP-46                   1.00   -nan(ind)  -nan(ind)  -nan(ind)  -nan(ind)  -nan(ind)  -nan(ind)  -nan(ind)  -nan(ind)  -nan(ind)
  PP-48                   1.00   -nan(ind)  -nan(ind)  -nan(ind)  -nan(ind)  -nan(ind)  -nan(ind)  -nan(ind)  -nan(ind)  -nan(ind)
  PP-49                   1.00   -nan(ind)  -nan(ind)  -nan(ind)  -nan(ind)  -nan(ind)  -nan(ind)  -nan(ind)  -nan(ind)  -nan(ind)
  PP-50                   1.00   -nan(ind)  -nan(ind)  -nan(ind)  -nan(ind)  -nan(ind)  -nan(ind)  -nan(ind)  -nan(ind)  -nan(ind)
  PP-51                   1.00   -nan(ind)  -nan(ind)  -nan(ind)  -nan(ind)  -nan(ind)  -nan(ind)  -nan(ind)  -nan(ind)  -nan(ind)
  PP-52                   1.00   -nan(ind)  -nan(ind)  -nan(ind)  -nan(ind)  -nan(ind)  -nan(ind)  -nan(ind)  -nan(ind)  -nan(ind)
  PP-53                   1.00   -nan(ind)  -nan(ind)  -nan(ind)  -nan(ind)  -nan(ind)  -nan(ind)  -nan(ind)  -nan(ind)  -nan(ind)
  PP-54                   1.00   -nan(ind)  -nan(ind)  -nan(ind)  -nan(ind)  -nan(ind)  -nan(ind)  -nan(ind)  -nan(ind)  -nan(ind)
  PP-55                   1.00   -nan(ind)  -nan(ind)  -nan(ind)  -nan(ind)  -nan(ind)  -nan(ind)  -nan(ind)  -nan(ind)  -nan(ind)
  PP-56                   1.00   -nan(ind)  -nan(ind)  -nan(ind)  -nan(ind)  -nan(ind)  -nan(ind)  -nan(ind)  -nan(ind)  -nan(ind)
  PP-57                   1.00   -nan(ind)  -nan(ind)  -nan(ind)  -nan(ind)  -nan(ind)  -nan(ind)  -nan(ind)  -nan(ind)  -nan(ind)
  PP-58                   1.00   -nan(ind)  -nan(ind)  -nan(ind)  -nan(ind)  -nan(ind)  -nan(ind)  -nan(ind)  -nan(ind)  -nan(ind)
  PP-59                   1.00   -nan(ind)  -nan(ind)  -nan(ind)  -nan(ind)  -nan(ind)  -nan(ind)  -nan(ind)  -nan(ind)  -nan(ind)
  PP-60                   1.00   -nan(ind)  -nan(ind)  -nan(ind)  -nan(ind)  -nan(ind)  -nan(ind)  -nan(ind)  -nan(ind)  -nan(ind)
  PP-61                   1.00   -nan(ind)  -nan(ind)  -nan(ind)  -nan(ind)  -nan(ind)  -nan(ind)  -nan(ind)  -nan(ind)  -nan(ind)
  PP-62                   1.00   -nan(ind)  -nan(ind)  -nan(ind)  -nan(ind)  -nan(ind)  -nan(ind)  -nan(ind)  -nan(ind)  -nan(ind)
  PP-67                   3.29   -nan(ind)  -nan(ind)  -nan(ind)  -nan(ind)  -nan(ind)  -nan(ind)  -nan(ind)  -nan(ind)  -nan(ind)
  PP-69                   1.00   -nan(ind)  -nan(ind)  -nan(ind)  -nan(ind)  -nan(ind)  -nan(ind)  -nan(ind)  -nan(ind)  -nan(ind)
  PP-71                   1.00   -nan(ind)  -nan(ind)  -nan(ind)  -nan(ind)  -nan(ind)  -nan(ind)  -nan(ind)  -nan(ind)  -nan(ind)
  PP-74                   6.00   -nan(ind)  -nan(ind)  -nan(ind)  -nan(ind)  -nan(ind)  -nan(ind)  -nan(ind)  -nan(ind)  -nan(ind)
  PP-79                   1.00   -nan(ind)  -nan(ind)  -nan(ind)  -nan(ind)  -nan(ind)  -nan(ind)  -nan(ind)  -nan(ind)  -nan(ind)
  PP-80                   3.11   -nan(ind)  -nan(ind)  -nan(ind)  -nan(ind)  -nan(ind)  -nan(ind)  -nan(ind)  -nan(ind)  -nan(ind)
  PP-81                   1.00   -nan(ind)  -nan(ind)  -nan(ind)  -nan(ind)  -nan(ind)  -nan(ind)  -nan(ind)  -nan(ind)  -nan(ind)
  PP-82                   1.00   -nan(ind)  -nan(ind)  -nan(ind)  -nan(ind)  -nan(ind)  -nan(ind)  -nan(ind)  -nan(ind)  -nan(ind)
  PP-83                   1.00   -nan(ind)  -nan(ind)  -nan(ind)  -nan(ind)  -nan(ind)  -nan(ind)  -nan(ind)  -nan(ind)  -nan(ind)
  PP-84                   1.00   -nan(ind)  -nan(ind)  -nan(ind)  -nan(ind)  -nan(ind)  -nan(ind)  -nan(ind)  -nan(ind)  -nan(ind)
  PP-85                   1.00   -nan(ind)  -nan(ind)  -nan(ind)  -nan(ind)  -nan(ind)  -nan(ind)  -nan(ind)  -nan(ind)  -nan(ind)
  PP-86                   1.00   -nan(ind)  -nan(ind)  -nan(ind)  -nan(ind)  -nan(ind)  -nan(ind)  -nan(ind)  -nan(ind)  -nan(ind)
  PP-87                   1.00   -nan(ind)  -nan(ind)  -nan(ind)  -nan(ind)  -nan(ind)  -nan(ind)  -nan(ind)  -nan(ind)  -nan(ind)
  PP-88                   1.00   -nan(ind)  -nan(ind)  -nan(ind)  -nan(ind)  -nan(ind)  -nan(ind)  -nan(ind)  -nan(ind)  -nan(ind)
  PP-99                   1.00   -nan(ind)  -nan(ind)  -nan(ind)  -nan(ind)  -nan(ind)  -nan(ind)  -nan(ind)  -nan(ind)  -nan(ind)
  PP-81000                1.00   -nan(ind)  -nan(ind)  -nan(ind)  -nan(ind)  -nan(ind)  -nan(ind)  -nan(ind)  -nan(ind)  -nan(ind)
  PP-83000                1.00   -nan(ind)  -nan(ind)  -nan(ind)  -nan(ind)  -nan(ind)  -nan(ind)  -nan(ind)  -nan(ind)  -nan(ind)
  
  
  *************************
  Conduit Surcharge Summary
  *************************
  
  No conduits were surcharged.
  
  
  ***************
  Pumping Summary
  ***************
  
  ---------------------------------------------------------------------------------------------------------
                                                  Min       Avg       Max     Total     Power    % Time Off
                        Percent   Number of      Flow      Flow      Flow    Volume     Usage    Pump Curve
  Pump                 Utilized   Start-Ups       CFS       CFS       CFS  10^6 gal     Kw-hr    Low   High
  ---------------------------------------------------------------------------------------------------------
  LS_#1_Pump1          -nan(ind)           0      0.00      0.00      0.00     0.000      0.00    0.0    0.0
  LS_#5_Pump1          -nan(ind)           0      0.00      0.00      0.00     0.000      0.00    0.0    0.0
  LS_#6_Pump1          -nan(ind)           0      0.00      0.00      0.00     0.000      0.00    0.0    0.0
  LS_#8_Pump1          -nan(ind)           0      0.00      0.00      0.00     0.000      0.00    0.0    0.0
  LS_#10_Pump1         -nan(ind)           0      0.00      0.00      0.00     0.000      0.00    0.0    0.0
  LS_#21_Pump1         -nan(ind)           0      0.00      0.00      0.00     0.000      0.00    0.0    0.0
  LS_#15_Pump1         -nan(ind)           0      0.00      0.00      0.00     0.000      0.00    0.0    0.0
  LS_#16_Pump1         -nan(ind)           0      0.00      0.00      0.00     0.000      0.00    0.0    0.0
  LS_#18_Pump1         -nan(ind)           0      0.00      0.00      0.00     0.000      0.00    0.0    0.0
  LS_#19_Pump1         -nan(ind)           0      0.00      0.00      0.00     0.000      0.00    0.0    0.0
  LS_#22_Pump1         -nan(ind)           0      0.00      0.00      0.00     0.000      0.00    0.0    0.0
  PUMP-23              -nan(ind)           0      0.00      0.00      0.00     0.000      0.00    0.0    0.0
  LS_#24B_Pump1        -nan(ind)           0      0.00      0.00      0.00     0.000      0.00    0.0    0.0
  LS_#3_Pump2          -nan(ind)           0      0.00      0.00      0.00     0.000      0.00    0.0    0.0
  LS_#2_Pump2          -nan(ind)           0      0.00      0.00      0.00     0.000      0.00    0.0    0.0
  LS_#10_Pump2         -nan(ind)           0      0.00      0.00      0.00     0.000      0.00    0.0    0.0
  

  Analysis begun on:  Sat Nov 30 08:10:11 2019
  Analysis ended on:  Sat Nov 30 08:10:14 2019
  Total elapsed time: 00:00:03