
  EPA STORM WATER MANAGEMENT MODEL - VERSION 5.1 (Build 5.1.013)
  --------------------------------------------------------------

  WARNING 04: minimum elevation drop used for Conduit C-Op16
  WARNING 04: minimum elevation drop used for Conduit C-4737A
  WARNING 04: minimum elevation drop used for Conduit C-AL1S1-1
  WARNING 04: minimum elevation drop used for Conduit C-WL2-2
  WARNING 04: minimum elevation drop used for Conduit C-WL2W5-1
  WARNING 04: minimum elevation drop used for Conduit O-EP2-1
  WARNING 04: minimum elevation drop used for Conduit C-520
  WARNING 04: minimum elevation drop used for Conduit O-PL9AddP1
  WARNING 04: minimum elevation drop used for Conduit C-OM1-2
  WARNING 04: minimum elevation drop used for Conduit C-WL6W1-1
  WARNING 04: minimum elevation drop used for Conduit C-Op11
  WARNING 04: minimum elevation drop used for Conduit C-Op10
  WARNING 04: minimum elevation drop used for Conduit C-DnWP126C
  WARNING 04: minimum elevation drop used for Conduit C3WetCplx1
  WARNING 04: minimum elevation drop used for Conduit C-WL1W3-2B
  WARNING 04: minimum elevation drop used for Conduit COp13
  WARNING 04: minimum elevation drop used for Conduit P-WL2N2-1
  WARNING 04: minimum elevation drop used for Conduit P-Id_hud_1
  WARNING 04: minimum elevation drop used for Conduit P-WL1W3-2
  WARNING 04: minimum elevation drop used for Conduit O-WL1W4-1
  WARNING 04: minimum elevation drop used for Conduit TWL2W2-1
  WARNING 04: minimum elevation drop used for Conduit CWL3W2-3
  WARNING 04: minimum elevation drop used for Conduit P-I94-11
  WARNING 04: minimum elevation drop used for Conduit O-FwyMdwP1
  WARNING 04: minimum elevation drop used for Conduit O-WetCplx1
  WARNING 04: minimum elevation drop used for Conduit P-GrdnGtP2
  WARNING 04: minimum elevation drop used for Conduit O-GrdnGtP2
  WARNING 04: minimum elevation drop used for Conduit P-WL2W4-1
  WARNING 04: minimum elevation drop used for Conduit P-WL2W5-1A
  WARNING 04: minimum elevation drop used for Conduit O-WL2W5-1A
  WARNING 04: minimum elevation drop used for Conduit P1-ML1W2-1
  WARNING 04: minimum elevation drop used for Conduit CPL_CDP28
  WARNING 02: maximum depth increased for Node 4816
  WARNING 02: maximum depth increased for Node Op8
  WARNING 02: maximum depth increased for Node WL5-2
  WARNING 02: maximum depth increased for Node WL5-3
  WARNING 02: maximum depth increased for Node WL2W2-4
  WARNING 02: maximum depth increased for Node WL2W2-3
  WARNING 02: maximum depth increased for Node Ept_P2_2
  WARNING 02: maximum depth increased for Node WL1W3-2B
  WARNING 02: maximum depth increased for Node WL1W3-2C
  WARNING 02: maximum depth increased for Node WL1-1
  WARNING 02: maximum depth increased for Node WL1W3-2
  WARNING 02: maximum depth increased for Node Ept_P2
  WARNING 02: maximum depth increased for Node PLWetCplx2
  
  *************
  Element Count
  *************
  Number of rain gages ...... 1
  Number of subcatchments ... 208
  Number of nodes ........... 526
  Number of links ........... 628
  Number of pollutants ...... 0
  Number of land uses ....... 0
  
  
  ****************
  Raingage Summary
  ****************
                                                      Data       Recording
  Name                 Data Source                    Type       Interval 
  ------------------------------------------------------------------------
  HDRstorms            tempadj6.3Q1-10                INTENSITY   30 min.
  
  
  ********************
  Subcatchment Summary
  ********************
  Name                       Area     Width   %Imperv    %Slope Rain Gage            Outlet              
  -----------------------------------------------------------------------------------------------------------
  1072#1                    37.81    663.24     33.50    1.6900 HDRstorms            1072                
  1301#1                    10.46    697.78     13.10   13.1100 HDRstorms            1301                
  2857#1                    38.64    634.82     51.90    1.8800 HDRstorms            2857                
  2949#1                     2.01     90.15     52.70    1.4700 HDRstorms            2949                
  446#1                     46.95    522.98     43.10    1.8200 HDRstorms            446                 
  AL1-1#1                  114.37   1323.79     40.10    1.1400 HDRstorms            AL1-1               
  AL1N1-1#1                219.29   1874.69     22.50    1.3400 HDRstorms            AL1N1-1             
  AL1N2-1#1                 33.16    755.68     40.20    1.3900 HDRstorms            AL1N2-1             
  AL1N2-2#1                 90.53   1395.77     43.10    1.5700 HDRstorms            AL1N2-2             
  AL1N2-3#1                 32.59    647.06     62.70    2.4400 HDRstorms            AL1N2-3             
  AL1S1-1#1                 76.02   1327.57     36.20    2.3500 HDRstorms            AL1S1-1             
  BL_CDP42#1                38.88   1033.05     34.70    0.5300 HDRstorms            BL_CDP42            
  BLFwyMdwP1#1              65.78   1623.94     33.60    3.7900 HDRstorms            BLFwyMdwP1          
  BLFwyMdwP4#1              38.38    545.74     40.80    0.8200 HDRstorms            BLFwyMdwP4          
  BLFwyMdwW5#1               3.36    588.71     25.70    2.2800 HDRstorms            BLFwyMdwW5          
  CD_P20#1                  17.37   1065.76     41.50    3.1000 HDRstorms            CD_P20              
  CD-P25#1                   9.17    621.71     16.90    1.2600 HDRstorms            CD-P25              
  CD-P25.1#1                63.45    936.78     38.80    2.0600 HDRstorms            CD-P25.1            
  CL1-1#1                  422.14   4122.37     45.00    2.5400 HDRstorms            CL1-1               
  CL1N1-1#1                 60.30    928.02     44.10    1.8400 HDRstorms            CL1N1-1             
  CL1N2-1#1                147.41   1281.05     29.20    0.8800 HDRstorms            CL1N2-1             
  CL1N3-1#1                 62.36   1131.64     44.00    0.7900 HDRstorms            CL1N3-1             
  CL1N4-1#1                  9.08    640.58     31.80    4.1900 HDRstorms            CL1N4-1             
  CL1N5-1#1                 13.10    845.04     35.50    3.3700 HDRstorms            CL1N5-1             
  CL1N6-1#1                 42.76    976.91     30.10    0.8900 HDRstorms            CL1N6-1             
  CL1W1-1#1                 58.19   1351.86     30.40    2.3000 HDRstorms            CL1W1-1             
  CL1W2-1#1                108.13   1501.55     36.20    2.1800 HDRstorms            CL1W2-1             
  CL2-1#1                   82.48   1452.88     31.30    4.6300 HDRstorms            CL2-1               
  CL3-1#1                   28.49    637.81     37.10    0.9900 HDRstorms            CL3-1               
  CLBLdCDP38#1              43.69    800.34     33.40    3.3300 HDRstorms            CLBLdCDP38          
  CLCL1Ad12#1               79.69   1134.15     37.30    2.7000 HDRstorms            CLCL1Ad12           
  CLHghHt1P1#1              25.48    523.48     36.80    2.8100 HDRstorms            CLHghHt1P1          
  CLQryRdgPA#1              35.44   1014.47     41.40    3.7100 HDRstorms            CLQryRdgPA          
  CLWdCrsP1#1               33.16    765.80     37.50    3.0800 HDRstorms            CLWdCrsP1           
  CLWdCrsP2#1                6.92    328.41     36.90    3.3000 HDRstorms            CLWdCrsP2           
  CLWdCrsP3#1               13.51    652.25     43.20    3.4600 HDRstorms            CLWdCrsP3           
  Ep_NC2.1#1                11.86    280.24     58.50    1.8200 HDRstorms            Ep_NC2.1            
  Ep_NC2.1#2                14.25    296.47     13.40    1.6500 HDRstorms            Ep_NC2.1            
  Ep_NC2.2#1                 0.74     75.98     19.90    4.2500 HDRstorms            Ep_NC2.2            
  Ep_NC2.2#2                 3.27    183.42      7.10    4.1800 HDRstorms            Ep_NC2.2            
  EP1-1#1                   29.51    341.33     44.20    1.7600 HDRstorms            EP1-1               
  EP2-1#1                    4.14    308.04     22.30    2.2200 HDRstorms            EP2-1               
  EP2-2p#1                  11.67    424.10     52.40    1.8100 HDRstorms            EP2-2p              
  EP2-3#1                   87.15   1266.01     19.50    3.1300 HDRstorms            EP2-3               
  EP2-5#1                   60.81    665.01      9.30    2.3500 HDRstorms            EP2-5               
  EP3-2#1                   58.50    769.58      9.00    1.3700 HDRstorms            EP3-2               
  EP4-1#1                   90.26   1311.89     12.10    1.5700 HDRstorms            EP4-1               
  EP4-3#1                   19.14    652.61     21.30    1.5600 HDRstorms            EP4-3               
  Ept_P1#1                   5.16    388.77     55.90    3.4900 HDRstorms            Ept_P1              
  Ept_P10#1                  4.10    424.68     71.30    0.4000 HDRstorms            Ept_P10             
  Ept_P13#1                 19.60    886.16     33.60    1.7800 HDRstorms            Ept_P13             
  Ept_P18#1                 16.56    654.43     22.20    0.9800 HDRstorms            Ept_P18             
  Ept_P2#1                   1.93    427.01     38.40    4.8700 HDRstorms            Ept_P2              
  Ept_P2_1#1                18.96    360.26      8.40    1.9700 HDRstorms            Ept_P2_1            
  Ept_P2_5#1                 5.82    241.13     71.70    1.4300 HDRstorms            Ept_P2_5            
  Ept_P3#1                   5.11    389.84     52.50    3.3500 HDRstorms            Ept_P3              
  Ept_P3#2                   3.74    353.23     19.70    2.0300 HDRstorms            Ept_P3              
  Ept_P7#1                   1.88    265.90     33.50    4.0600 HDRstorms            Ept_P7              
  Ept_P9#1                  11.28   1226.10     27.30    4.7000 HDRstorms            Ept_P9              
  GA1-1#1                    4.33    360.95     40.10    2.5800 HDRstorms            GA1-1               
  GA1-2#1                   17.69   1164.56     32.10    4.7700 HDRstorms            GA1-2               
  GlbColPd#1                10.50    744.42     46.50    1.9400 HDRstorms            GlbColPd            
  I94-1#1                    1.58    100.55     44.70    1.4300 HDRstorms            I94-1               
  I94-11#1                   8.23    453.57     30.60    4.5200 HDRstorms            I94-11              
  I94-15#1                   3.00    117.05     42.60    2.7600 HDRstorms            I94-15              
  I94-4#1                    3.23     94.05     49.90    1.5000 HDRstorms            I94-4               
  I94-5#1                    4.26    125.73     53.80    0.7100 HDRstorms            I94-5               
  I94-6#1                    8.25    119.55     57.70    1.0300 HDRstorms            I94-6               
  I94-7#1                    2.49    160.30     57.70    1.4700 HDRstorms            I94-7               
  I94-8#1                    5.00    336.12     47.40    7.1100 HDRstorms            I94-8               
  I94-9#1                    7.09    417.94     27.10    4.4200 HDRstorms            I94-9               
  Id_hud_1#1                17.52    638.58     49.30    4.5900 HDRstorms            Id_hud_1            
  In_w_cu#1                  4.15    204.07     59.50    0.8800 HDRstorms            In_w_cu             
  ML1-1#1                  196.15   2666.06     51.70    1.4200 HDRstorms            ML1-1               
  ML1W1-1#1                 11.93    444.46     16.10    1.6400 HDRstorms            ML1W1-1             
  ML1W2-1#1                 57.32    993.02     51.40    2.0900 HDRstorms            ML1W2-1             
  ML2-1#1                   32.13   1555.41     45.50    2.4700 HDRstorms            ML2-1               
  ML-ST_1#1                  4.61    317.22     21.20    2.2100 HDRstorms            ML-ST_1             
  ML-STP1#1                 36.00    863.12     82.10    0.9900 HDRstorms            ML-STP1             
  Oc10#1                     6.95    241.05     55.80    2.1800 HDRstorms            Oc10                
  Oc17_3#1                  14.58    600.22     39.00    2.0000 HDRstorms            Oc17_3              
  Oc4_GA#1                   5.21    103.53     33.80    1.8600 HDRstorms            Oc4_GA              
  OM1-1#1                   11.82    675.84     33.40    1.4000 HDRstorms            OM1-1               
  Om17_2#1                   5.14    146.02     41.30    2.2600 HDRstorms            Om17_2              
  Op10#1                    34.76    701.48     12.60    1.7000 HDRstorms            Op10                
  Op11#1                     5.37    623.94     53.20    3.7700 HDRstorms            Op11                
  Op12#1                     6.70    521.02     26.60    1.6800 HDRstorms            Op12                
  Op13#1                    10.00    414.86     64.20    1.4500 HDRstorms            Op13                
  Op14#1                    43.52   1453.15     20.60    3.6300 HDRstorms            Op14                
  Op15#1                    12.59    328.91     11.40    2.1200 HDRstorms            Op15                
  Op16#1                     4.47    580.71     45.40    3.6100 HDRstorms            Op16                
  Op9#1                     29.35    976.90     25.70    2.0700 HDRstorms            Op9                 
  P-774#1                    8.90    686.02     40.70    3.8900 HDRstorms            P-774               
  PL_CDP28#1                26.65   1834.66     27.50    2.1600 HDRstorms            PL_CDP28            
  PL1-1#1                  141.55   2553.22     54.80    1.8600 HDRstorms            PL1-1               
  PL2E1-1#1                 26.06    636.37     31.70    1.5200 HDRstorms            PL2E1-1             
  PL2E2-1#1                 57.84   1244.17     38.60    1.1500 HDRstorms            PL2E2-1             
  PL2W1-1#1                  7.65    515.25     29.00    4.0600 HDRstorms            PL2W1-1             
  PL-CD-P27#1              291.96   3157.49     24.30    1.7300 HDRstorms            PL-CD-P27           
  PLDnWP1_P1#1              10.83    674.19     35.90    0.4500 HDRstorms            PLDnWP1_P1          
  PLDnWP1_P2#1               5.63    241.81     42.20    0.5200 HDRstorms            PLDnWP1_P2          
  PLDnWP1_P5#1              18.34    495.79     35.50    1.1700 HDRstorms            PLDnWP1_P5          
  PLDnWP1_P7#1              42.03    659.56     22.20    3.1000 HDRstorms            PLDnWP1_P7          
  PLDnWP1_P8#1              46.96   1030.27     25.90    4.2300 HDRstorms            PLDnWP1_P8          
  PLDnWP1_P9#1              14.28    377.07     39.40    0.4200 HDRstorms            PLDnWP1_P9          
  PLDnWP115o#1              18.23    685.39     19.40    1.9600 HDRstorms            PLDnWP115o          
  PLDnWP126A#1               7.50   1331.09     56.40    1.1200 HDRstorms            PLDnWP126A          
  PLDnWP126B#1               9.36   1411.27     51.00    2.0900 HDRstorms            PLDnWP126B          
  PLDnWP126C#1              13.21    403.98     38.30    1.1700 HDRstorms            PLDnWP126C          
  PLDnWP1P10#1              19.76    353.87     44.40    0.5800 HDRstorms            PLDnWP1P10          
  PLDnWP1P11#1              21.22    760.76     23.70    5.9300 HDRstorms            PLDnWP1P11          
  PLDnWP1P12#1              19.95    532.81     48.70    1.0500 HDRstorms            PLDnWP1P12          
  PLDnWP1P13#1              27.28    668.31     37.50    0.5600 HDRstorms            PLDnWP1P13          
  PLDnWP1P14#1               4.28    313.57     63.50    0.9700 HDRstorms            PLDnWP1P14          
  PLDnWP1P15#1              24.31   1734.74     28.80    0.8700 HDRstorms            PLDnWP1P15          
  PLDnWP1P17#1              12.75    581.41     43.30    1.5600 HDRstorms            PLDnWP1P17          
  PLDnWP1Wt4#1               3.41    380.10     33.90    1.6600 HDRstorms            PLDnWP1Wt4          
  PLFoxRn_PD#1              58.65   1598.77     34.40    1.1300 HDRstorms            PLFoxRn_PD          
  PLGrdnGtP1#1               3.41    319.37     41.60    3.6900 HDRstorms            PLGrdnGtP1          
  PLGrdnGtP2#1              28.00    956.14     29.30    2.8100 HDRstorms            PLGrdnGtP2          
  PLML2ad_P1#1              30.47    976.85     33.90    2.0000 HDRstorms            PLML2ad_P1          
  PLPL1AddP1#1              32.77    680.53     37.90    1.8100 HDRstorms            PLPL1AddP1          
  PLPL1AddWt#1              17.07    637.74     23.30    2.4400 HDRstorms            PLPL1AddWt          
  PLPL9AddP1#1              10.52    315.06     42.70    1.5000 HDRstorms            PLPL9AddP1          
  PLPL9AddW1#1               7.75    484.00     24.10    2.3800 HDRstorms            PLPL9AddW1          
  PLPL9AddW2#1               4.33    440.92     23.50    3.8700 HDRstorms            PLPL9AddW2          
  PLPLAdP1P1#1              22.66    816.83     42.70    1.4400 HDRstorms            PLPLAdP1P1          
  PLPLAdP1P2#1               3.75    302.28     41.80    2.0100 HDRstorms            PLPLAdP1P2          
  PLTurnbryW#1              32.49    669.45     39.40    1.1000 HDRstorms            PLTurnbryW          
  PLWetCplx1#1              21.23   1024.30     31.40    1.6100 HDRstorms            PLWetCplx1          
  PLWetCplx2#1              10.61    747.60     45.60    1.9300 HDRstorms            PLWetCplx2          
  PLWetCplx3#1              11.38    567.64     24.10    1.7300 HDRstorms            PLWetCplx3          
  PLWetCplx4#1               5.31    427.57     32.90    3.4600 HDRstorms            PLWetCplx4          
  RadI94Dtch#1              10.73    127.88     57.70    1.1600 HDRstorms            RadI94Dtch          
  RadI94P1_1#1               6.28    267.00     50.90    2.8000 HDRstorms            RadI94P1_1          
  RadioI94P1#1               3.65    523.00     52.70    9.4300 HDRstorms            RadioI94P1          
  RadioI94P2#1               5.16    478.60     50.40    1.4700 HDRstorms            RadioI94P2          
  RadioI94P3#1               5.97    263.63     38.30    4.4300 HDRstorms            RadioI94P3          
  WL1-1#1                   40.97   3792.90     49.20    3.0900 HDRstorms            WL1-1               
  WL1E1-1#1                 16.61    529.08     34.20    2.0800 HDRstorms            WL1E1-1             
  WL1E2-1#1                 11.95    278.45     28.80    0.8800 HDRstorms            WL1E2-1             
  WL1E3-1#1                 23.10    388.09     36.10    1.5800 HDRstorms            WL1E3-1             
  WL1N2-1#1                 37.28   1291.16     38.70    3.8500 HDRstorms            WL1N2-1             
  WL1N3-1#1                 22.16    685.00     25.50    3.9000 HDRstorms            WL1N3-1             
  WL1N3-2#1                 32.76    963.18     28.90    1.5800 HDRstorms            WL1N3-2             
  WL1S1-1#1                 15.95    457.50     30.80    2.0000 HDRstorms            WL1S1-1             
  WL1W1-1#1                 30.95    412.28     32.40    3.3900 HDRstorms            WL1W1-1             
  WL1W2-1#1                 50.42    864.03     32.40    3.1900 HDRstorms            WL1W2-1             
  WL1W3-1#1                153.50   2006.09     34.60    2.2200 HDRstorms            WL1W3-1             
  WL1W3-2#1                 19.00    491.03     33.80    2.1400 HDRstorms            WL1W3-2             
  WL1W3-3P#1                17.42    823.34     28.60    2.7600 HDRstorms            WL1W3-3P            
  WL1W3-4P#1                10.74    439.52     31.90    2.0500 HDRstorms            WL1W3-4P            
  WL1W3-5P#1                23.44    545.91     32.80    2.7500 HDRstorms            WL1W3-5P            
  WL1W4-1#1                 50.33   1406.11     58.40    2.2900 HDRstorms            WL1W4-1             
  WL2-1#1                   55.70   2810.97     42.30    3.0800 HDRstorms            WL2-1               
  WL2N1-1#1                 16.71    702.79     32.40    2.1900 HDRstorms            WL2N1-1             
  WL2N2-1#1                 49.88   1003.22     52.50    2.6100 HDRstorms            WL2N2-1             
  WL2W10-1#1                31.04    742.47     33.10    1.6300 HDRstorms            WL2W10-1            
  WL2W1-1#1                 60.27    950.91     30.20    2.3400 HDRstorms            WL2W1-1             
  WL2W11-1#1                39.04    873.13     37.40    1.5900 HDRstorms            WL2W11-1            
  WL2W13-1#1                27.78    929.78     42.40    1.1100 HDRstorms            WL2W13-1            
  WL2W14-1#1                 8.02    595.63     65.30    2.0000 HDRstorms            WL2W14-1            
  WL2W15-1#1                38.22    706.35     61.90    0.9900 HDRstorms            WL2W15-1            
  WL2W2-1#1                 26.77    637.16     28.80    2.3600 HDRstorms            WL2W2-1             
  WL2W3-1#1                120.73   1738.09     29.60    2.0100 HDRstorms            WL2W3-1             
  WL2W4-1#1                 25.67    656.90     35.90    2.5800 HDRstorms            WL2W4-1             
  WL2W5-1A#1                19.03    305.24     24.20    1.7900 HDRstorms            WL2W5-1A            
  WL2W6-1#1                 37.79    596.36     45.80    1.8400 HDRstorms            WL2W6-1             
  WL2W7-1#1                263.78   2349.17     29.30    1.3200 HDRstorms            WL2W7-1             
  WL2W8-1#1                 38.03    879.00     32.60    3.2000 HDRstorms            WL2W8-1             
  WL2W9-1#1                 16.99    755.89     48.00    1.7700 HDRstorms            WL2W9-1             
  WL3-1#1                   23.34    452.00     34.60    2.8400 HDRstorms            WL3-1               
  WL3W1-1#1                 22.34    424.88     26.90    3.8800 HDRstorms            WL3W1-1             
  WL3W2-1#1                  9.95    554.70     23.30    1.8900 HDRstorms            WL3W2-1             
  WL3W2-3#1                  6.57    274.40     26.80    1.2100 HDRstorms            WL3W2-3             
  WL3W3-1#1                  5.23    504.63     50.30    1.6700 HDRstorms            WL3W3-1             
  WL3W3-2#1                 13.16    726.10     65.20    1.1100 HDRstorms            WL3W3-2             
  WL3W3-3#1                  6.02    212.28     62.30    0.6800 HDRstorms            WL3W3-3             
  WL3W3-4#1                  9.59    435.10     62.30    0.8700 HDRstorms            WL3W3-4             
  WL4-1#1                   79.68   1740.03     34.10    3.6400 HDRstorms            WL4-1               
  WL4N2-1#1                  7.88    799.90     34.60    8.0400 HDRstorms            WL4N2-1             
  WL5-1#1                   58.31    918.39     10.50    3.1600 HDRstorms            WL5-1               
  WL5-10#1                   1.30    126.38     51.50    1.0300 HDRstorms            WL5-10              
  WL5-5#1                    3.38    174.71     57.70    0.9500 HDRstorms            WL5-5               
  WL5S1-1#1                 42.08    930.92     52.50    1.9700 HDRstorms            WL5S1-1             
  WL5W1-2#1                  8.39    320.67     32.70    1.7400 HDRstorms            WL5W1-2             
  WL5W1-3#1                 23.93    470.64     36.70    0.8400 HDRstorms            WL5W1-3             
  WL5W3-1#1                 42.74   1102.38     45.00    1.3400 HDRstorms            WL5W3-1             
  WL5W3-2#1                  6.09    300.20     61.30    0.2100 HDRstorms            WL5W3-2             
  WL5W3-4#1                 11.91    350.51     62.30    0.5900 HDRstorms            WL5W3-4             
  WL5W3-5#1                  5.38    298.29     62.30    1.0200 HDRstorms            WL5W3-5             
  WL5W4-1#1                 22.87   1858.04     55.30    5.5500 HDRstorms            WL5W4-1             
  WL5W4-2#1                  6.47    274.48     62.20    0.3300 HDRstorms            WL5W4-2             
  WL5W4-3#1                 14.47    619.20     62.30    0.2600 HDRstorms            WL5W4-3             
  WL5W5-1#1                  2.88    355.94     43.50    5.5200 HDRstorms            WL5W5-1             
  WL5W5-2#1                 10.70    645.95     48.60    3.3700 HDRstorms            WL5W5-2             
  WL6W1-1#1                 37.34    842.44     35.90    3.7300 HDRstorms            WL6W1-1             
  WL6W2-1#1                 41.59    819.25     29.60    3.2900 HDRstorms            WL6W2-1             
  WLMuirP1#1                10.55    751.55     65.30    2.3700 HDRstorms            WLMuirP1            
  WLMuirP2#1                 8.67    291.30     62.50    0.7600 HDRstorms            WLMuirP2            
  WLOp13_4#1                 3.83    295.36     62.90    1.5900 HDRstorms            WLOp13_4            
  WL-PdV1#1                 15.90    664.41     59.70    1.6100 HDRstorms            WL-PdV1             
  WL-PdV2#1                 11.28    548.05     45.50    4.3600 HDRstorms            WL-PdV2             
  WL-RT-P1#1                19.06   2407.62     36.00    6.8100 HDRstorms            WL-RT-P1            
  WL-SamPd#1                72.32   1316.14     58.80    1.9700 HDRstorms            WL-SamPd            
  WL-WL117#1                20.02    369.00     60.00    2.6600 HDRstorms            WL-WL117            
  WL-WL-2#1                 14.12    751.13     61.70    3.2800 HDRstorms            WL-WL-2             
  WL-WL-21#1                23.85    624.53     61.00    1.2800 HDRstorms            WL-WL-21            
  
  
  ************
  Node Summary
  ************
                                           Invert      Max.    Ponded    External
  Name                 Type                 Elev.     Depth      Area    Inflow  
  -------------------------------------------------------------------------------
  WL-WL117             JUNCTION            929.70     14.80       0.0
  EP2-5                JUNCTION            979.51      6.49       0.0
  2949                 JUNCTION            993.70      9.48       0.0
  2857                 JUNCTION            968.19      8.29       0.0
  WL2W5-1A             JUNCTION            976.00      6.00       0.0
  WL1E3-1              JUNCTION            913.88      6.12       0.0
  1072                 JUNCTION            903.19     11.94       0.0
  WL1E2-1              JUNCTION            905.91      6.75       0.0
  PL2W1-1              JUNCTION            897.53     12.47       0.0
  WL1W1-1              JUNCTION            914.00      4.00       0.0
  WL2W1-1              JUNCTION            922.00     10.00       0.0
  Om17_2               JUNCTION           1009.22      3.00       0.0
  Oc4_GA               JUNCTION            998.83      9.86       0.0
  WLOp13_4             JUNCTION           1002.33      6.75       0.0
  I94-15               JUNCTION            981.00      7.00       0.0
  I94-5                JUNCTION           1004.00      2.00       0.0
  WL5W1-3              JUNCTION            983.48      5.50       0.0
  I94-4                JUNCTION           1004.07      6.93       0.0
  I94-1                JUNCTION            995.09      4.91       0.0
  WL5W3-4              JUNCTION            997.63     15.67       0.0
  WL5W3-2              JUNCTION           1005.40     11.60       0.0
  EP4-1                JUNCTION            994.00      9.20       0.0
  WL2W9-1              JUNCTION           1013.80      9.70       0.0
  EP4-3                JUNCTION           1002.97      7.03       0.0
  EP2-3                JUNCTION            981.00      5.00       0.0
  446                  JUNCTION            916.43      9.49       0.0
  WL-WL-21             JUNCTION            937.20     25.30       0.0
  WL-WL-2              JUNCTION            916.30     39.00       0.0
  WL3W3-3              JUNCTION           1008.59      7.00       0.0
  WL3W3-4              JUNCTION           1010.64      6.30       0.0
  WL5W4-3              JUNCTION           1014.72      7.03       0.0
  WL5W4-2              JUNCTION           1013.19      9.70       0.0
  WL5W3-5              JUNCTION           1004.27      4.60       0.0
  In_w_cu              JUNCTION            997.00      4.00       0.0
  Oc17_3               JUNCTION            999.30      9.55       0.0
  Oc10                 JUNCTION            992.35      9.00   50000.0
  EP3-2                JUNCTION            992.82      9.14       0.0
  Ep_NC2.2             JUNCTION            980.00     14.45       0.0
  Ep_NC2.1             JUNCTION            968.36      8.60       0.0
  CLCL1Ad12            JUNCTION            946.00     10.25       0.0
  WL5-5                JUNCTION            930.51     28.00       0.0
  ML-ST_1              JUNCTION            932.50     11.00   15000.0
  24                   JUNCTION            938.95      6.16       0.0
  26                   JUNCTION            943.56     11.20       0.0
  31                   JUNCTION            953.41      3.82       0.0
  431                  JUNCTION            921.69      7.00       0.0
  440                  JUNCTION            924.80      5.90       0.0
  441                  JUNCTION            923.79      6.80       0.0
  443                  JUNCTION            922.43      7.42       0.0
  449                  JUNCTION            926.16      6.87       0.0
  453                  JUNCTION            934.32      6.79       0.0
  520                  JUNCTION            916.43      9.74       0.0
  742                  JUNCTION            905.42     13.72       0.0
  744                  JUNCTION            906.64      5.00       0.0
  746                  JUNCTION            907.70      5.29       0.0
  747                  JUNCTION            907.89      5.63       0.0
  749                  JUNCTION            908.82      8.41       0.0
  789                  JUNCTION            913.00      7.11       0.0
  828                  JUNCTION            921.73      3.66       0.0
  829                  JUNCTION            920.85      7.74       0.0
  830                  JUNCTION            917.82     10.31       0.0
  864                  JUNCTION            910.15      9.85       0.0
  865                  JUNCTION            909.92     10.08       0.0
  866                  JUNCTION            909.16     14.58       0.0
  867                  JUNCTION            909.63     14.08       0.0
  868                  JUNCTION            907.02     13.34       0.0
  869                  JUNCTION            908.19     13.18       0.0
  872                  JUNCTION            907.37     13.89       0.0
  879                  JUNCTION            905.49     12.55       0.0
  880                  JUNCTION            905.28     12.97       0.0
  881                  JUNCTION            904.57     12.41       0.0
  882                  JUNCTION            904.17     11.98       0.0
  927                  JUNCTION            903.53     10.58       0.0
  953                  JUNCTION            923.43      3.80       0.0
  1077                 JUNCTION            904.10      9.23       0.0
  1078                 JUNCTION            907.47      7.53       0.0
  1189                 JUNCTION            897.04      8.89  100000.0
  1190                 JUNCTION            896.09      9.00   50000.0
  1191                 JUNCTION            896.46      9.12   25000.0
  1195                 JUNCTION            895.19      7.28   50000.0
  1196                 JUNCTION            894.63      7.37       0.0
  1199                 JUNCTION            895.99      8.00   50000.0
  1498                 JUNCTION            897.30      9.26   50000.0
  1508                 JUNCTION            897.90     10.93       0.0
  1530                 JUNCTION            898.26     12.51       0.0
  2852                 JUNCTION            978.19      7.01       0.0
  2853                 JUNCTION            974.22      9.09       0.0
  2858                 JUNCTION            969.07      5.88       0.0
  2860                 JUNCTION            970.02      5.53       0.0
  2870                 JUNCTION            970.83      6.58       0.0
  2871                 JUNCTION            972.62      4.88       0.0
  2951                 JUNCTION            987.02      3.02       0.0
  2952                 JUNCTION            991.10      5.38       0.0
  2953                 JUNCTION            982.15      8.20       0.0
  2970                 JUNCTION            949.75      6.41       0.0
  2975                 JUNCTION            961.33      6.03       0.0
  3093                 JUNCTION           1003.37      8.12       0.0
  4566                 JUNCTION            952.63      6.57       0.0
  4568                 JUNCTION            947.71      9.24       0.0
  4581                 JUNCTION            958.36      4.99       0.0
  4685                 JUNCTION            973.69      5.86       0.0
  4686                 JUNCTION            970.64      6.86       0.0
  4687                 JUNCTION            968.54      7.51       0.0
  4691                 JUNCTION            966.36      5.86       0.0
  4702                 JUNCTION            975.87      5.05       0.0
  4704                 JUNCTION            976.26      5.06       0.0
  4705                 JUNCTION            978.34      5.82       0.0
  4708                 JUNCTION            979.50      4.99       0.0
  4709                 JUNCTION            981.43      5.83       0.0
  4710                 JUNCTION            984.33      7.39       0.0
  4711                 JUNCTION            986.46      8.49       0.0
  4737                 JUNCTION            994.13      7.92       0.0
  4739                 JUNCTION            993.22      8.50       0.0
  4741                 JUNCTION            992.14      9.02       0.0
  4767                 JUNCTION            962.50      5.36       0.0
  4816                 JUNCTION            958.54      8.69       0.0
  4817                 JUNCTION            940.41     13.72       0.0
  EP4-4                JUNCTION           1017.08      2.00       0.0
  WL5-13               JUNCTION            938.57      3.50       0.0
  WL2-4                JUNCTION            908.12     11.88       0.0
  WL2-5                JUNCTION            916.62      4.56       0.0
  WL2-3                JUNCTION            905.79     11.21   50000.0
  WL2W1-2              JUNCTION            933.73     18.27       0.0
  WL2W6-2              JUNCTION            987.16      7.84       0.0
  WL1W1-2              JUNCTION            925.34      4.00       0.0
  EP4-2                JUNCTION           1002.61      9.19       0.0
  EP2-2                JUNCTION            964.48      5.52       0.0
  Ept_NC2              JUNCTION            970.87      9.20       0.0
  WL5-8                JUNCTION            943.97     13.00  125000.0
  WL5-7                JUNCTION            938.30     14.00   50000.0
  WL5-14               JUNCTION            967.00     13.00       0.0
  WL2W2-6              JUNCTION            960.00     10.00       0.0
  WL2-6                JUNCTION            912.00      8.00       0.0
  1357                 JUNCTION            899.29     15.06       0.0
  1358                 JUNCTION            898.87     12.97       0.0
  1300                 JUNCTION            897.19     21.56       0.0
  1302                 JUNCTION            896.42     18.40       0.0
  1303                 JUNCTION            896.13     22.37       0.0
  1304                 JUNCTION            895.74     26.05       0.0
  1299                 JUNCTION            895.32     24.95       0.0
  1298                 JUNCTION            894.45     15.12       0.0
  1570                 JUNCTION            892.29     21.53       0.0
  1206                 JUNCTION            899.73     14.27       0.0
  CL1-2                JUNCTION            959.20      5.80       0.0
  CL1W1-2              JUNCTION            969.10     13.25       0.0
  CL1N2-2              JUNCTION            891.30     23.70       0.0
  CL1N2-3              JUNCTION            897.08     18.77       0.0
  CL1N2-4              JUNCTION            899.50     19.90       0.0
  CL1N2-5              JUNCTION            900.71     17.77       0.0
  CL1N2-6              JUNCTION            907.70     10.30       0.0
  GA1-3                JUNCTION           1003.38      6.62       0.0
  I94-2                JUNCTION            993.27      2.00       0.0
  I94-12               JUNCTION            984.24      5.15       0.0
  I94-13               JUNCTION            982.66      5.05       0.0
  I94-14               JUNCTION            981.31      6.50       0.0
  I94-16               JUNCTION            979.00      2.00       0.0
  I94-10               JUNCTION            966.00      2.00       0.0
  I94-3                JUNCTION           1004.86      4.94   50000.0
  I94-3b               JUNCTION           1006.00      8.00       0.0
  OM1-2                JUNCTION           1012.00      2.00       0.0
  OM1-3                JUNCTION           1012.00      2.00       0.0
  1                    JUNCTION           1006.10      6.90       0.0
  2                    JUNCTION           1007.00      4.00       0.0
  5                    JUNCTION            914.00      6.00       0.0
  3                    JUNCTION           1015.70      4.30       0.0
  Op8                  JUNCTION           1015.80      5.00       0.0
  WL5-1-3              JUNCTION            957.80     10.00       0.0
  WL5-1-2              JUNCTION            938.40     32.10       0.0
  WL5-6                JUNCTION            930.60     18.00  100000.0
  WL5-4                JUNCTION            930.39     10.00   50000.0
  WL5-9                JUNCTION            938.00      2.00       0.0
  WL5-11               JUNCTION            970.04      4.50   50000.0
  WL5-2                JUNCTION            924.00     10.00       0.0
  WL5-3                JUNCTION            927.91     10.00   50000.0
  WL5W1-4              JUNCTION            985.70      2.00       0.0
  WL2W3-3              JUNCTION            972.00      6.00       0.0
  WL2W5-1              JUNCTION            976.00      6.00       0.0
  WL2W5-2              JUNCTION            978.00     10.00       0.0
  WL2W2-4              JUNCTION            958.33      6.00       0.0
  WL2W2-3              JUNCTION            956.00      6.00       0.0
  ML1-2                JUNCTION            928.00     10.00       0.0
  EP1-2                JUNCTION            970.00      2.00       0.0
  WL1-2                JUNCTION            901.90     10.44       0.0
  ML1-4                JUNCTION            930.16      5.34       0.0
  ML1-3                JUNCTION            929.43      3.75       0.0
  ML1W1-5              JUNCTION            944.50      9.00       0.0
  ML1W1-4              JUNCTION            940.64     14.81       0.0
  WL2W2-5              JUNCTION            959.82     10.18       0.0
  4737A                JUNCTION            994.13      7.92       0.0
  4568A                JUNCTION            941.25     12.88       0.0
  WL2N1-2              JUNCTION            932.01     11.99       0.0
  4568B                JUNCTION            943.31     11.64       0.0
  ML1-3A               JUNCTION            929.60      4.00       0.0
  Om4_15               JUNCTION           1003.80      5.00       0.0
  Om4_IM               JUNCTION            997.12      8.00       0.0
  Om16_4               JUNCTION           1016.43      2.00       0.0
  Om10_13              JUNCTION            991.70      9.50   15000.0
  Inwood_4             JUNCTION            990.71      8.77       0.0
  Os16                 JUNCTION           1015.00      7.00       0.0
  Fl_In_s4             JUNCTION            990.59      3.00       0.0
  m_In_n4              JUNCTION            986.95     11.15       0.0
  In_e_cu              JUNCTION            996.80      4.20       0.0
  Oc12                 JUNCTION            994.00      8.00   50000.0
  Os13                 JUNCTION            996.26      6.84       0.0
  Ept_NC1              JUNCTION            991.64      9.16       0.0
  Ept_2o               JUNCTION            992.55      9.00    2000.0
  Ept_NC3              JUNCTION            970.22      9.03       0.0
  Ept_P13s             JUNCTION            982.66     12.34       0.0
  PL2W1-2              JUNCTION            893.92     16.08       0.0
  AL1N2-3o             JUNCTION           1036.00      7.00       0.0
  CL1N2-5A             JUNCTION            913.11      8.89       0.0
  BLFwyMdw23           JUNCTION            929.31     13.59       0.0
  CL1N5-2              JUNCTION            921.59     13.41       0.0
  WL5-1-22             JUNCTION            933.50     31.00       0.0
  WL5W3-6              JUNCTION           1002.75     16.20       0.0
  Ept_P2_2             JUNCTION            999.99      5.00       0.0
  Ept_P10o             JUNCTION            992.53      8.47       0.0
  Ept_P15o             JUNCTION            979.81     11.89       0.0
  WL-WL-4              JUNCTION            931.70     27.10       0.0
  WL-WL-10             JUNCTION            934.70     24.10       0.0
  Ep_NC2.3             JUNCTION            986.75     14.46       0.0
  WL4-3                JUNCTION            928.58      6.92       0.0
  WL4-2                JUNCTION            912.03     14.67       0.0
  HudWeir              JUNCTION            911.17     21.23       0.0
  Ept_18.1             JUNCTION            978.00     10.80       0.0
  Ept_18.2             JUNCTION            974.00      8.00       0.0
  FlowSplt             JUNCTION            907.70     12.07       0.0
  WL2N2-1o             JUNCTION            932.77     11.23       0.0
  WL-SamO1             JUNCTION            930.26      9.34  100000.0
  WL-SamO2             JUNCTION            929.96     13.88       0.0
  WL5W3-3              JUNCTION           1009.31     11.70       0.0
  WL4-4                JUNCTION            962.60      6.00       0.0
  WLOp13_3             JUNCTION           1001.27      9.65       0.0
  WLOp13_2             JUNCTION            998.87      4.75       0.0
  WLOp13_1             JUNCTION            998.01      7.58       0.0
  EP2-4                JUNCTION            979.17      6.83       0.0
  WL1W2-1o             JUNCTION            937.97      6.76       0.0
  WL1W4-1o             JUNCTION            995.08      8.92       0.0
  BLFwyMdw45           JUNCTION            922.08      9.25       0.0
  BLFwyMdw46           JUNCTION            922.13     10.27       0.0
  BLFwyMdw92           JUNCTION            917.83     10.57       0.0
  BLFyMdw79A           JUNCTION            921.52      6.88       0.0
  BLFwyMdw27           JUNCTION            920.85      9.51       0.0
  WL1W3-3_2            JUNCTION            941.77     12.00       0.0
  WL1W3-3_3            JUNCTION            939.59     13.00   20000.0
  PLPLAdP117           JUNCTION            904.00     15.46       0.0
  PLPLAdP118           JUNCTION            905.16     12.84       0.0
  PLPL9Add8            JUNCTION            891.96     10.00       0.0
  PLPL1Add_5           JUNCTION            902.81     10.09       0.0
  CLBhtLd220           JUNCTION            913.63      9.67       0.0
  CLBhtLd219           JUNCTION            909.66     14.24       0.0
  CLBhtLd215           JUNCTION            904.24     22.46       0.0
  CLBhtLd214           JUNCTION            893.24     10.09       0.0
  CLHghHt129           JUNCTION            993.39      7.11       0.0
  CLHghHt128           JUNCTION            990.66      7.98       0.0
  CLHghHt1-7           JUNCTION            984.01      8.57       0.0
  CLHghHt1-3           JUNCTION            964.30     15.71       0.0
  CLHghHt1-1           JUNCTION            956.56      8.34       0.0
  CLCL1Ad12A           JUNCTION            949.52      6.99       0.0
  CLBLd1_11            JUNCTION            937.46      8.19       0.0
  CLWdCrs107           JUNCTION            996.97      6.34       0.0
  CLWdCrs106           JUNCTION            995.65      7.96       0.0
  CLWdCrs103           JUNCTION            995.16      8.13       0.0
  CLWdCrs161           JUNCTION            990.82     11.07       0.0
  CLQyRdgPmp           JUNCTION            955.62     29.38       0.0
  CLQryRdg6            JUNCTION           1005.30      7.50       0.0
  CLCL9Ad11a           JUNCTION            989.71      7.37       0.0
  CLCL9Add11           JUNCTION            988.07      8.33       0.0
  CLCL9Add-6           JUNCTION            984.64      8.54       0.0
  CLCL12Add2           JUNCTION            998.62     11.35       0.0
  CLCL1Add-9           JUNCTION            927.30      7.80       0.0
  CLCL9Add-2           JUNCTION            978.88     11.95       0.0
  CLCL9Add-3           JUNCTION            983.47      9.23       0.0
  CLCL9Add-4           JUNCTION            989.69      8.41       0.0
  CLCL9Add-1           JUNCTION            971.07     12.32       0.0
  BLGrdRes24           JUNCTION            919.76      8.66       0.0
  BLGrdRes23           JUNCTION            918.71     10.55       0.0
  BLGrdRes22           JUNCTION            916.38     12.01       0.0
  BLGrdRes19           JUNCTION            913.66     13.13       0.0
  BLGrdRes18           JUNCTION            910.27     17.43       0.0
  BLGrdRes17           JUNCTION            909.90     17.30       0.0
  BLGrdRes15           JUNCTION            906.29     18.29       0.0
  WL1W3-4_1            JUNCTION            975.45     12.00       0.0
  PLPL9Add7            JUNCTION            892.36     19.16       0.0
  PLPLAdP116           JUNCTION            899.80     17.97       0.0
  WL1W3-4_2            JUNCTION            964.84     12.00       0.0
  WL1W3-5_2            JUNCTION            962.53     12.00       0.0
  WL1W3-5_1            JUNCTION            963.42     12.00       0.0
  WL1W3-5_3            JUNCTION            953.04     12.00       0.0
  WL1W3-5_4            JUNCTION            949.97     12.00       0.0
  WL1W3-3_1            JUNCTION            952.92     12.00       0.0
  PLPL9Add10           JUNCTION            897.97     18.64       0.0
  PLGrdnGtM1           JUNCTION            927.12      8.63       0.0
  PLGrdnGtM2           JUNCTION            924.48      8.85       0.0
  PLGrdnGtM3           JUNCTION            921.17     11.18       0.0
  PLDnWP1_16           JUNCTION            909.21      8.79       0.0
  PLDnWP1146           JUNCTION            917.01      9.08       0.0
  PLDnWP1145           JUNCTION            910.00      8.00       0.0
  PLDnWP1162           JUNCTION            921.85      8.43       0.0
  PLDnWP1157           JUNCTION            920.61      8.09       0.0
  PLPLAdP19            JUNCTION            906.03     16.62       0.0
  PLPLAdP17            JUNCTION            906.09     12.61       0.0
  PLDnWP1152           JUNCTION            918.71      6.24       0.0
  PLDnWP1148           JUNCTION            916.22      6.00       0.0
  PLDnWP1172           JUNCTION            907.93     27.57       0.0
  PLDnWP1168           JUNCTION            901.48     26.02       0.0
  PLDnWP1164           JUNCTION            891.58     18.42       0.0
  PLDnWP1194           JUNCTION            920.42     10.71       0.0
  PLDnWP1176           JUNCTION            917.21      9.64       0.0
  PLDnWP1175           JUNCTION            914.72      9.13       0.0
  PLDnWP1O12           JUNCTION            914.30      6.70       0.0
  PLFoxRn_6            JUNCTION            889.56     13.44       0.0
  PLPL1AddPo           JUNCTION            900.30     11.70       0.0
  PLPL1Add_3           JUNCTION            898.32     18.07       0.0
  PLPL1Add_2           JUNCTION            897.47     16.97       0.0
  PLPL1Add_1           JUNCTION            888.51     13.15       0.0
  PLPL1Add_6           JUNCTION            903.32      7.50   20000.0
  PLDnWP1102           JUNCTION            914.68      8.64       0.0
  PLDnWP1101           JUNCTION            912.41     10.85       0.0
  PLDnWP1o10           JUNCTION            914.34      5.66       0.0
  PL_CDP28o            JUNCTION            910.00     11.00       0.0
  PLWetCpx3o           JUNCTION            911.90      6.10       0.0
  PLDnWP1P8o           JUNCTION            921.48     11.52       0.0
  PLDnWP18o2           JUNCTION            919.30      8.50       0.0
  PLDnWP1117           JUNCTION            917.79      6.81       0.0
  PLDnWP1112           JUNCTION            916.74     12.57       0.0
  PL-CD-P27o           JUNCTION            915.95     12.05       0.0
  PLDnWP1111           JUNCTION            915.47     15.73       0.0
  PLDnWP1127           JUNCTION            915.45     19.30       0.0
  PLWetCpx1o           JUNCTION            913.79      4.21       0.0
  CDP25.1_2            JUNCTION            922.43      5.39       0.0
  WL5-10o1             JUNCTION            955.00     10.00       0.0
  WL5-10o2             JUNCTION            931.00     19.00       0.0
  WL1N2-1.3            JUNCTION            923.12      6.88       0.0
  WL1N2-1.2            JUNCTION            922.07      6.79       0.0
  WL1N2-1.1            JUNCTION            909.00     10.09       0.0
  WL_O_SS2             JUNCTION            900.72     13.28       0.0
  WL_O_SS1             JUNCTION            899.48     14.52       0.0
  WL1W3-2o             JUNCTION            966.70      5.30       0.0
  PnCrV_12             JUNCTION           1009.82      6.18       0.0
  PnCrV_9              JUNCTION           1003.24      5.36       0.0
  PnCrV_SPo            JUNCTION            992.50      5.50       0.0
  lnWd1st17            JUNCTION            989.36      5.76       0.0
  lnWd1st16            JUNCTION            983.06      4.36   20000.0
  lnWd1st15            JUNCTION            981.49      4.88       0.0
  lnWd1st15o           JUNCTION            973.28      2.72       0.0
  PnCrV_10             JUNCTION           1004.50      6.68       0.0
  P-774o               JUNCTION            988.69      7.31       0.0
  4711_2               JUNCTION            988.22      6.78       0.0
  WL1W3-2B             JUNCTION            968.00      6.00       0.0
  WL1W3-2C             JUNCTION            968.00      6.00       0.0
  EP4-2-1              JUNCTION            999.77     10.00       0.0
  EP4-2-2              JUNCTION            996.92     10.00       0.0
  NWS-outfall          OUTFALL             885.00      5.00       0.0
  AL1S1-1              STORAGE            1018.00      8.00       0.0
  WL5W1-2              STORAGE             976.77      9.81       0.0
  WL4-1                STORAGE             910.21     11.79       0.0
  WL2N2-1              STORAGE             935.74      8.26       0.0
  ML1-1                STORAGE             921.00      9.00       0.0
  WL3-1                STORAGE             908.12      9.88       0.0
  WL2N1-1              STORAGE             918.18      5.82       0.0
  WL2W6-1              STORAGE             981.90      5.10       0.0
  WL2W4-1              STORAGE             972.00     10.00       0.0
  PL-CD-P27            STORAGE             900.00     28.00       0.0
  WL3W2-1              STORAGE             998.00      8.00       0.0
  WL3W1-1              STORAGE             914.24      8.35       0.0
  WL5W5-1              STORAGE            1001.00      5.00       0.0
  GlbColPd             STORAGE             995.00     15.00       0.0
  WL2W3-1              STORAGE             960.00     10.00       0.0
  WL2W2-1              STORAGE             939.39     12.61       0.0
  WL1-1                STORAGE             896.00     18.59       0.0
  WL1E1-1              STORAGE             902.00     10.34       0.0
  PL2E1-1              STORAGE             886.60     17.40       0.0
  WL1W2-1              STORAGE             936.60     11.40       0.0
  WL1S1-1              STORAGE             896.00     18.00       0.0
  PL2E2-1              STORAGE             892.00     10.00       0.0
  AL1-1                STORAGE            1017.35     10.65       0.0
  WL1W4-1              STORAGE             995.08      8.92       0.0
  AL1N2-3              STORAGE            1042.00      4.00       0.0
  WL1W3-2              STORAGE             966.90      5.85       0.0
  CL1W2-1              STORAGE             969.96     12.04       0.0
  CL1-1                STORAGE             879.61     22.14       0.0
  CL1N3-1              STORAGE             907.93     16.07       0.0
  CL2-1                STORAGE             906.71     19.29       0.0
  CL1N2-1              STORAGE             890.30      7.70       0.0
  CL1N1-1              STORAGE             890.08      7.92       0.0
  CL1N6-1              STORAGE             921.73      8.27       0.0
  CL1N5-1              STORAGE             916.00      6.00       0.0
  PLDnWP1P11           STORAGE             914.00      8.00       0.0
  RadI94P1_1           STORAGE             984.30     10.70       0.0
  CL1W1-1              STORAGE             959.43      6.57       0.0
  Op16                 STORAGE            1015.00      7.00       0.0
  Op15                 STORAGE            1012.00      3.50       0.0
  Op14                 STORAGE            1013.00      5.50       0.0
  Ept_P1               STORAGE             993.50      6.50       0.0
  Ept_P7               STORAGE             973.00      6.20       0.0
  AL1N2-2              STORAGE            1032.00      4.00       0.0
  Ept_P2_5             STORAGE            1001.60      4.00       0.0
  EP2-1                STORAGE             958.91     15.09       0.0
  GA1-1                STORAGE            1003.14      4.86       0.0
  I94-6                STORAGE             985.41      2.59       0.0
  I94-11               STORAGE             962.00      4.50       0.0
  I94-9                STORAGE             968.00      7.15       0.0
  I94-7                STORAGE             976.05      3.95       0.0
  I94-8                STORAGE             972.75      7.25       0.0
  GA1-2                STORAGE            1000.00     12.00       0.0
  WL4N2-1              STORAGE             954.91      5.09       0.0
  WL-RT-P1             STORAGE             969.00      7.00       0.0
  OM1-1                STORAGE            1008.00      4.00       0.0
  WL2W11-1             STORAGE            1029.00      5.00       0.0
  WL2W10-1             STORAGE            1016.00      6.00       0.0
  WL2W13-1             STORAGE            1018.00      6.00       0.0
  WL2W8-1              STORAGE            1003.00      5.00       0.0
  WL2W7-1              STORAGE             987.60     15.40       0.0
  WL2W15-1             STORAGE             996.50      5.50       0.0
  WL6W2-1              STORAGE             950.00      3.25       0.0
  WL2-1                STORAGE             886.00     28.00       0.0
  WL6W1-1              STORAGE             912.00      6.00       0.0
  WL1N2-1              STORAGE             910.00     10.00       0.0
  WL1N3-2              STORAGE             923.00      9.00       0.0
  Op11                 STORAGE            1006.00      4.00       0.0
  Id_hud_1             STORAGE            1000.00     12.00       0.0
  Op12                 STORAGE            1012.00      2.00       0.0
  Op9                  STORAGE            1016.00      3.00       0.0
  Op10                 STORAGE            1006.00      4.00       0.0
  WL2W14-1             STORAGE            1012.00      8.00       0.0
  CL3-1                STORAGE             912.18      7.82       0.0
  1301                 STORAGE             898.08     15.92       0.0
  Ept_P13              STORAGE             989.00      6.00       0.0
  Ept_P9               STORAGE             978.00     12.00       0.0
  Ept_P10              STORAGE             994.00      6.00       0.0
  WL5W4-1              STORAGE            1010.00     14.00       0.0
  WL5W3-1              STORAGE             990.00     14.00       0.0
  WL-PdV1              STORAGE            1014.00     18.00       0.0
  WL-PdV2              STORAGE            1021.87      6.13       0.0
  AL1N2-1              STORAGE            1027.00      6.00       0.0
  WL5-1                STORAGE             911.24     21.16       0.0
  EP1-1                STORAGE             946.11     23.89       0.0
  Ept_P18              STORAGE             975.50     13.30       0.0
  ML-STP1              STORAGE             940.00     14.00       0.0
  ML1W2-1              STORAGE             944.50      9.00       0.0
  WL-SamPd             STORAGE             924.00     18.00       0.0
  ML2-1                STORAGE             930.00      8.00       0.0
  WL3W3-1              STORAGE            1005.00      9.00       0.0
  WL3W3-2              STORAGE            1009.00      7.00       0.0
  WL5S1-1              STORAGE             976.00      4.00       0.0
  WL3W2-3              STORAGE            1002.00      8.00       0.0
  WLMuirP1             STORAGE             988.00     16.00       0.0
  WLMuirP2             STORAGE             990.00     16.00       0.0
  WL5W5-2              STORAGE            1014.00      4.00       0.0
  EP2-2p               STORAGE             974.00      6.00       0.0
  Ept_P3               STORAGE             988.00     12.00       0.0
  Op13                 STORAGE             990.00     15.00       0.0
  AL1N1-1              STORAGE            1019.42     10.58       0.0
  Ept_P2               STORAGE             993.50      9.50       0.0
  Ept_P2_1             STORAGE             998.72      5.00       0.0
  BLFwyMdwP4           STORAGE             921.50      6.90       0.0
  BLFwyMdwW5           STORAGE             922.76      5.24       0.0
  BLFwyMdwP1           STORAGE             934.65      8.25       0.0
  BL_CDP42             STORAGE             923.70      8.30       0.0
  CLHghHt1P1           STORAGE             993.57      6.43       0.0
  WL1W3-5P             STORAGE             987.00      6.00       0.0
  CLBLdCDP38           STORAGE             916.21     11.79       0.0
  CLWdCrsP3            STORAGE            1003.39      6.61       0.0
  CLWdCrsP2            STORAGE             997.50      6.50       0.0
  CLWdCrsP1            STORAGE             993.50      8.50       0.0
  CLQryRdgPA           STORAGE             955.50     30.50       0.0
  WL1W3-4P             STORAGE             993.00      6.00       0.0
  WL1W3-3P             STORAGE             961.00      6.00       0.0
  WL1W3-1              STORAGE             938.95     12.00       0.0
  PLGrdnGtP2           STORAGE             930.00      5.10       0.0
  PLGrdnGtP1           STORAGE             929.80      7.00       0.0
  CD-P25.1             STORAGE             913.00     17.00       0.0
  PLWetCplx4           STORAGE             913.82      6.18       0.0
  PLTurnbryW           STORAGE             928.00      5.00       0.0
  PLML2ad_P1           STORAGE             912.00     10.00       0.0
  PLWetCplx2           STORAGE             914.14      3.86       0.0
  PLWetCplx1           STORAGE             913.79      4.21       0.0
  PLFoxRn_PD           STORAGE             906.00     14.00       0.0
  PLPLAdP1P2           STORAGE             908.00     16.00       0.0
  PLPLAdP1P1           STORAGE             900.00     18.00       0.0
  PLPL9AddW2           STORAGE             895.48     15.52       0.0
  PLWetCplx3           STORAGE             912.27      5.73       0.0
  PLPL9AddW1           STORAGE             905.94      5.06       0.0
  PLPL9AddP1           STORAGE             892.02      9.00       0.0
  CD-P25               STORAGE             920.96      5.94       0.0
  PLDnWP126C           STORAGE             914.00     13.00       0.0
  PLDnWP126A           STORAGE             920.50      4.60       0.0
  PLDnWP1_P2           STORAGE             914.00     11.00       0.0
  PLDnWP1_P1           STORAGE             914.00     11.50       0.0
  PLDnWP126B           STORAGE             919.40      5.40       0.0
  PLDnWP1_P5           STORAGE             914.00     16.00       0.0
  PLDnWP1Wt4           STORAGE             929.00      3.00       0.0
  PLDnWP1_P9           STORAGE             904.00     18.00       0.0
  PLDnWP1P17           STORAGE             906.00     16.00       0.0
  PLDnWP1P15           STORAGE             900.00     18.00       0.0
  PLDnWP115o           STORAGE             907.00      7.00       0.0
  PL_CDP28             STORAGE             910.00     11.00       0.0
  PLDnWP1P12           STORAGE             910.00     11.00       0.0
  PLDnWP1P10           STORAGE             908.00     13.00       0.0
  PLPL1AddP1           STORAGE             899.70     12.30       0.0
  PLPL1AddWt           STORAGE             905.91      6.09       0.0
  PL1-1                STORAGE             846.00     65.00       0.0
  PLDnWP1P14           STORAGE             921.00      7.10       0.0
  PLDnWP1P13           STORAGE             921.50     10.00       0.0
  RadioI94P2           STORAGE             966.00      9.00       0.0
  PLDnWP1_P8           STORAGE             918.00     15.00       0.0
  PLDnWP1_P7           STORAGE             910.00     22.00       0.0
  CL1N4-1              STORAGE             916.00     12.40       0.0
  WL5-10               STORAGE             965.00      5.00       0.0
  RadioI94P3           STORAGE             928.00     13.00       0.0
  RadioI94P1           STORAGE             972.00     10.00       0.0
  ML1W1-1              STORAGE             933.00      7.00       0.0
  RadI94Dtch           STORAGE             952.66      6.00       0.0
  WL1N3-1              STORAGE             923.00      9.00       0.0
  CD_P20               STORAGE            1010.50      5.50       0.0
  P-774                STORAGE             989.00      7.00       0.0
  WL5W1-1              STORAGE             972.39      7.61       0.0
  WL5W2-1              STORAGE             987.87      8.13       0.0
  WL2-2                STORAGE             904.08     10.00       0.0
  WL2W12-1             STORAGE            1000.00      5.00       0.0
  WL3W2-2              STORAGE             999.89      8.11       0.0
  Ept_P2_4             STORAGE            1001.00      4.00       0.0
  Ept_P2_3             STORAGE            1000.50      4.50       0.0
  Ept_P15              STORAGE             986.00      5.74       0.0
  PnCrV_SP             STORAGE             992.00      6.00       0.0
  
  
  ************
  Link Summary
  ************
  Name             From Node        To Node          Type            Length    %Slope Roughness
  ---------------------------------------------------------------------------------------------
  C-441            441              443              CONDUIT           32.4    4.2050    0.0130
  C-443            443              431              CONDUIT          124.1    0.5962    0.0130
  C-449            449              440              CONDUIT          112.5    1.2090    0.0130
  C-453            453              449              CONDUIT          182.7    4.4707    0.0130
  C-742            742              1077             CONDUIT          492.0    0.2683    0.0130
  C-WL1E2-1        WL1E2-1          742              CONDUIT          217.1    0.2257    0.0130
  C-744            744              WL1E2-1          CONDUIT          285.0    0.2561    0.0130
  C-746            746              744              CONDUIT          109.7    0.9663    0.0130
  C-747            747              746              CONDUIT           73.3    0.2592    0.0130
  C-749            749              747              CONDUIT          320.7    0.2900    0.0130
  C-WL1E3-1        WL1E3-1          789              CONDUIT           75.0    1.1734    0.0130
  C-789            789              1078             CONDUIT          358.7    0.8531    0.0130
  C-828            828              829              CONDUIT           90.0    0.9778    0.0130
  C-829            829              830              CONDUIT          327.0    0.9266    0.0130
  C-WL1N2-1        WL1N2-1          864              CONDUIT           19.3    0.2078    0.0130
  C-864            864              865              CONDUIT           78.9    0.2915    0.0130
  C-865            865              867              CONDUIT          139.1    0.2085    0.0130
  C-866            866              869              CONDUIT          249.6    0.3886    0.0130
  C-867            867              866              CONDUIT           33.5    1.4051    0.0130
  C-868            868              879              CONDUIT          220.1    0.6953    0.0130
  C-869            869              872              CONDUIT           55.2    1.4863    0.0130
  C-872            872              868              CONDUIT           72.8    0.4807    0.0130
  C-879            879              880              CONDUIT           34.7    0.6051    0.0130
  C-880            880              881              CONDUIT          150.2    0.4727    0.0130
  C-881            881              882              CONDUIT          122.9    0.3255    0.0130
  C-882            882              927              CONDUIT          186.2    0.3437    0.0130
  C-927            927              1072             CONDUIT           50.6    0.6722    0.0130
  C-ML1-1          ML1-1            953              CONDUIT          181.7    0.8311    0.0130
  C-953            953              828              CONDUIT          250.0    0.6800    0.0130
  O-4816           4816             4568             CONDUIT          366.1    2.4809    0.0130
  C-24             24               453              CONDUIT           85.4    5.4304    0.0130
  C-26             26               24               CONDUIT          175.0    2.6352    0.0130
  C-WL4N2-1        WL4N2-1          31               CONDUIT           18.0    8.3540    0.0130
  C-31             31               26               CONDUIT           62.0   16.0960    0.0130
  C-431            431              520              CONDUIT          196.5    2.6781    0.0130
  C-440            440              441              CONDUIT           32.5    3.1090    0.0130
  C-830            830              WL1E3-1          CONDUIT          400.0    0.9850    0.0130
  C-1078           1078             749              CONDUIT          213.9    0.5236    0.0130
  C-WL5-10o1       WL5-10o1         WL5-10o2         CONDUIT          689.7    2.3206    0.0130
  C-Rad94P1o       RadioI94P1       RadioI94P2       CONDUIT           69.2   19.1347    0.0130
  C-WL5-10o2       WL5-10o2         WL5-2            CONDUIT          273.6    0.7311    0.0130
  C-RaI94P3o       RadioI94P3       WL5-2            CONDUIT          166.7    2.4004    0.0130
  C-1195           1195             1196             CONDUIT          213.4    0.2625    0.0130
  C-1196           1196             PL2E1-1          CONDUIT          192.2    0.2445    0.0130
  C-WL5-11         WL5-11           RadioI94P2       CONDUIT          134.9    1.5121    0.0350
  C-Ra94P1OF       RadioI94P1       RadioI94P2       CONDUIT           67.5   16.5053    0.0350
  C-WL5-10         WL5-10           WL5-10o1         CONDUIT          214.9    4.5427    0.0350
  O-WL1W3-2C       WL1W3-2C         4816             CONDUIT          198.9    1.9960    0.0300
  C-WL2W3-1        WL2W3-1          WL2W2-4          CONDUIT           61.8   13.0559    0.0130
  C-I94-1          I94-1            I94-2            CONDUIT          237.5    0.7663    0.0130
  C-DnWP1P13       PLDnWP1P13       PLDnWP1P14       CONDUIT          175.2    0.2854    0.0130
  C-DnWP1P14       PLDnWP1P14       PLDnWP1194       CONDUIT           59.3    0.5569    0.0130
  C-2852           2852             2853             CONDUIT          165.0    2.4068    0.0130
  C-2853           2853             2871             CONDUIT           69.0    2.3208    0.0130
  C-2857           2857             2975             CONDUIT          119.5    5.7499    0.0130
  C-2858           2858             2857             CONDUIT           65.8    1.3368    0.0130
  C-2860           2860             2858             CONDUIT           48.9    1.9441    0.0130
  C-2870           2870             2860             CONDUIT           50.7    1.5992    0.0130
  C-2871           2871             2870             CONDUIT           97.5    1.8365    0.0130
  C-2949           2949             2952             CONDUIT          200.0    1.3001    0.0130
  C-2951           2951             2953             CONDUIT          194.0    2.5111    0.0130
  C-2952           2952             2951             CONDUIT          166.0    2.4586    0.0130
  C-2953           2953             2852             CONDUIT          165.0    2.4007    0.0130
  C-4568A          4568A            4817             CONDUIT           41.8    2.0083    0.0130
  C-2970           2970             WL3W1-1          CONDUIT          806.3    3.6812    0.0130
  C-2975           2975             2970             CONDUIT          275.7    4.2038    0.0130
  C-WL3W3-1        WL3W3-1          3093             CONDUIT           67.2    2.4270    0.0130
  C-4817           4817             WL1W3-1          CONDUIT           53.2    2.7436    0.0130
  C-4685           4685             4686             CONDUIT           57.0    5.3586    0.0130
  C-4686           4686             4687             CONDUIT          209.0    1.0048    0.0130
  C-4687           4687             4691             CONDUIT          176.0    1.2387    0.0130
  C-4691           4691             4767             CONDUIT          249.0    1.5504    0.0130
  C-4704           4704             4702             CONDUIT           43.0    0.9070    0.0130
  C-4705           4705             4704             CONDUIT          202.0    1.0298    0.0130
  C-CL1N2-2        CL1N2-2          CL1N2-1          CONDUIT          276.0    0.3333    0.0130
  C-CL1N2-3        CL1N2-3          CL1N2-2          CONDUIT          445.0    0.5798    0.0130
  C-CL1N2-4        CL1N2-4          CL1N2-3          CONDUIT          570.0    0.2982    0.0130
  C-CL1N2-5        CL1N2-5          CL1N2-4          CONDUIT          292.6    0.4136    0.0130
  C-CL1N2-5A       CL1N2-5A         CL1N2-5          CONDUIT          650.7    1.1527    0.0130
  C-CL1N2-6        CL1N2-6          CL1N2-4          CONDUIT         1423.5    0.4440    0.0130
  C-Om10_13        Om10_13          Inwood_4         CONDUIT          119.7    0.8274    0.0130
  C-Op16           Op16             Os16             CONDUIT           10.0    0.0100    0.0130
  C-Os16           Os16             Om16_4           CONDUIT           66.3    0.8143    0.0130
  C-WL6W1-1A       WL6W1-1          WL2-1            CONDUIT          317.4    2.5214    0.0350
  C-WL5-1-3        WL5-1-3          WL5-1-2          CONDUIT         1877.8    1.0332    0.0140
  C-EP2-3          EP2-3            WL5-1-3          CONDUIT          405.6    5.7290    0.0130
  C-WL5-1-2        WL5-1-2          WL5-1-22         CONDUIT          259.3    1.8898    0.0130
  C-4708           4708             4705             CONDUIT           44.3    2.6208    0.0130
  C-4709           4709             4708             CONDUIT          141.5    1.3637    0.0130
  C-4710           4710             4709             CONDUIT          264.0    1.0986    0.0130
  C-4711           4711             4710             CONDUIT          197.0    1.0813    0.0130
  C-4737A          4737A            4737             CONDUIT           30.8    0.0032    0.0130
  C-4737           4737             4739             CONDUIT          171.0    0.5322    0.0130
  C-WL1W4-1o       WL1W4-1o         4737A            CONDUIT           34.3    2.7738    0.0130
  C-4739           4739             4741             CONDUIT          130.0    0.8308    0.0130
  C-WL5-4          WL5-4            WL5-3            CONDUIT           81.7    3.0343    0.0130
  C-WL5-9          WL5-9            WL5-1            CONDUIT          939.9    1.7026    0.0350
  C-WL5-13         WL5-13           WL5-9            CONDUIT           53.6    1.0561    0.0450
  CRad94P1_1       RadI94P1_1       RadioI94P1       CONDUIT          161.5    4.3381    0.0130
  C-ML-STP1o       ML-STP1          ML-ST_1          CONDUIT          888.8    0.8439    0.0130
  C-1300           1300             1302             CONDUIT          478.0    0.1611    0.0130
  C-4741           4741             4711_2           CONDUIT          120.0    3.2681    0.0130
  C-4767           4767             4816             CONDUIT          224.0    1.7681    0.0130
  C-4816           4816             4581             CONDUIT           33.0    0.5455    0.0130
  C-3093           3093             WL3W2-3          CONDUIT          184.0    0.3424    0.0130
  C-AL1N1-1        AL1N1-1          AL1-1            CONDUIT          132.3    0.2268    0.0130
  C-WL5W1-2        WL5W1-2          WL5W1-1          CONDUIT          137.3    0.5709    0.0250
  C-WL5W1-1        WL5W1-1          WL5-11           CONDUIT          286.7    0.8184    0.0130
  C-WL5-14         WL5-14           WL5-13           CONDUIT          276.7   10.3314    0.0130
  C-WL4-1          WL4-1            WL3-1            CONDUIT          222.2    0.4689    0.0130
  C-WL3-1          WL3-1            WL2-4            CONDUIT           34.5    0.8444    0.0130
  C-WL3W1-1        WL3W1-1          WL2-4            CONDUIT          318.0    1.9251    0.0130
  C-WL2-4          WL2-4            WL2-3            CONDUIT          270.8    0.8603    0.0130
  C-WL2-3          WL2-3            WL2-2            CONDUIT          269.3    0.6336    0.0130
  C-WL2N1-1        WL2N1-1          WL2-5            CONDUIT           27.5    5.6685    0.0130
  C-WL2-5          WL2-5            WL2-3            CONDUIT           55.8   12.4880    0.0130
  C-WL2W6-2        WL2W6-2          WL2W6-1          CONDUIT          225.7    1.6389    0.0130
  C-WL1W3-1        WL1W3-1          WL1W2-1          CONDUIT          207.7    0.5152    0.0130
  C-AL1S1-1        AL1S1-1          AL1-1            CONDUIT           66.7    0.0015    0.0250
  C-WL_O_SS1       WL_O_SS1         1357             CONDUIT           93.1    0.2040    0.0130
  C-WL_O_SS2       WL_O_SS2         WL_O_SS1         CONDUIT           25.5    1.9597    0.0130
  C-EP4-1          EP4-1            EP3-2            CONDUIT          172.0    0.6861    0.0350
  C-EP2-2          EP2-2            EP2-1            CONDUIT          328.3    0.9382    0.0350
  C-Ept_P9         Ept_P9           EP2-2            CONDUIT          202.4   10.6950    0.0130
  C-EP1-1          EP1-1            WL5-8            CONDUIT           19.6   10.9682    0.0130
  C-WL5-8          WL5-8            WL5-7            CONDUIT           56.3   10.1207    0.0130
  C-WL5-7          WL5-7            WL5-6            CONDUIT           78.7    9.8349    0.0130
  C-WL5-6          WL5-6            WL5-5            CONDUIT           86.0    0.0999    0.0130
  C-WL5-5          WL5-5            WL5-4            CONDUIT          123.8    0.1001    0.0130
  C-WL2-2          WL2-2            WL2-1            CONDUIT           13.3    0.0075    0.0350
  C-WL1-2          WL1-2            WL1-1            CONDUIT          200.3    0.3794    0.0130
  C-ML1W1-1A       ML1W1-1          ML1-4            CONDUIT           84.0    1.5962    0.0130
  C-ML1-4          ML1-4            ML1-3A           CONDUIT           93.7    0.5977    0.0350
  C-ML1W1-5        ML1W1-5          ML1W1-4          CONDUIT           45.5    8.5178    0.0130
  C-WL2W2-6        WL2W2-6          WL2W2-5          CONDUIT           21.2    0.8296    0.0130
  C-WL2W2-5        WL2W2-5          WL2W2-4          CONDUIT           74.3    2.0176    0.0130
  C-WL2N1-2        WL2N1-2          WL2N1-1          CONDUIT          435.4    3.1779    0.0130
  C-WL5-2          WL5-2            WL5-1            CONDUIT          609.1    0.3284    0.0450
  O-DnWP1P12       PLDnWP1P12       PL_CDP28         CONDUIT           36.2    0.8020    0.0130
  C-WL5-3          WL5-3            WL5-2            CONDUIT          341.7    1.1451    0.0500
  C-WL5W1-4        WL5W1-4          WL5W1-3          CONDUIT          221.0    1.0069    0.0350
  C-WL2W3-3        WL2W3-3          WL2W3-1          CONDUIT          877.2    0.9121    0.0350
  C-WL2W5-1        WL2W5-1          WL2W5-1A         CONDUIT          486.4    0.0002    0.0500
  C-WL2W5-2        WL2W5-2          WL2W5-1          CONDUIT          274.8    0.7279    0.0500
  C-WL2W2-4        WL2W2-4          WL2W2-3          CONDUIT          385.2    0.6039    0.0500
  C-WL2W2-3        WL2W2-3          WL2W2-1          CONDUIT          497.5    1.6081    0.0500
  C-WL2W1-2        WL2W1-2          WL2W1-1          CONDUIT          415.9    2.8205    0.0500
  C-WL2W1-1        WL2W1-1          WL2-1            CONDUIT          946.4    1.9022    0.0500
  C-WL1W1-2        WL1W1-2          WL1W1-1          CONDUIT          370.9    3.0577    0.0500
  C-WL1W1-1        WL1W1-1          WL1-1            CONDUIT          257.0    1.5567    0.0500
  C-ML2-1          ML2-1            ML1-2            CONDUIT          173.9    1.7251    0.0130
  C-ML1-2          ML1-2            ML1-1            CONDUIT          154.0    1.9876    0.0130
  O-EP2-1          EP2-1            EP1-2            CONDUIT           80.0    0.0013    0.0130
  C-EP1-2          EP1-2            EP1-1            CONDUIT           43.6    9.2179    0.0350
  O-WL5W4-1        WL5W4-1          WL5W3-1          CONDUIT          356.7    5.6157    0.0350
  C-446            446              WL4-1            CONDUIT          158.4    1.2121    0.0130
  C-520            520              446              CONDUIT           14.5    0.0069    0.0130
  C1-WL3W2-1       WL3W2-1          WL5-1            CONDUIT         1608.5    5.1046    0.0350
  C-4702           4702             4685             CONDUIT          307.7    0.7085    0.0130
  C-4581           4581             4566             CONDUIT          154.8    3.7034    0.0130
  C-4566           4566             4568             CONDUIT          150.0    3.2818    0.0130
  C-4568           4568             4568B            CONDUIT          220.0    2.0002    0.0130
  C-4568B          4568B            4568A            CONDUIT          103.3    1.9949    0.0130
  C-ML1-3A         ML1-3A           ML1-3            CONDUIT           52.3    0.3252    0.0130
  O-AL1N2-1        AL1N2-1          AL1N1-1          CONDUIT         1147.4    0.2615    0.0300
  C-I94-2          I94-2            WL5W1-4          CONDUIT          698.6    1.0837    0.0350
  C-GA1-1          GA1-1            I94-12           CONDUIT          153.9   11.9413    0.0130
  C-I94-12         I94-12           I94-13           CONDUIT          132.0    0.8711    0.0130
  C-I94-13         I94-13           I94-14           CONDUIT          122.8    1.0664    0.0130
  C-I94-14         I94-14           I94-15           CONDUIT           18.5    1.6755    0.0130
  C-WL3-1A         WL3-1            WL2-6            CONDUIT           99.3    4.0320    0.0300
  C-WL2-6          WL2-6            WL2-1            CONDUIT          284.9    1.4040    0.0300
  C-1206           1206             WL_O_SS1         CONDUIT          131.5    0.1901    0.0130
  C-1357           1357             1358             CONDUIT          167.2    0.2512    0.0130
  C-1358           1358             1301             CONDUIT          319.2    0.2475    0.0130
[...]
  C-WL5W1-4                   0.01      0.01      9.58      0.01         0.01
  C-WL2W3-3                   0.01      0.01     94.56      0.01         0.01
  C-WL2W5-1                   0.01      0.01      0.01      2.04         0.01
  C-WL2W1-2                   0.01      0.01      1.02      0.01         0.01
  C-ML2-1                     0.01      0.01      6.61      0.01         0.01
  C-4568                      0.01      0.01      2.98      0.01         0.01
  C-4568B                     1.08      1.08     21.52      0.01         0.01
  C-ML1-3A                    0.01      2.25      0.01      2.62         0.01
  C-WL3-1A                    0.01      0.01      2.96      0.01         0.01
  C-1206                     93.49     93.49     93.59     71.70        92.46
  C-1357                     93.67     93.67     93.83      0.01        91.91
  C-1358                     93.83     93.83     93.97      0.01        90.94
  C-1301                     93.97     93.97     94.08      0.01        90.84
  C-GrdnGtM2                  6.79      6.79     10.70      0.01         0.01
  C-ML1W1-4                   0.01      1.77      0.01      1.43         0.01
  C-WL5W3-4                   0.01      0.01     22.77      0.01         0.01
  C2-1078                     0.01     95.39      0.01     34.58         0.01
  C1-WL-PdV2                  0.01      1.87      0.01      0.01         0.01
  C1-WL-PdV1                  1.98     12.05      1.98     11.84         1.98
  C-GlbColPd                 15.14     16.60     28.47      4.24         4.81
  C-CL1W1-1                   0.11     18.27      0.11     23.68         0.11
  C-CL1N1-1                  88.64     92.76     88.64     79.74        75.31
  C-CL1N2-1                  93.71     95.00     93.71     45.72        69.75
  C-CL1N3-1                  53.14     56.49     53.14     57.43        53.14
  C-CL1N5-2                   0.01     54.59      3.18     51.41         0.01
  C-CL1W2-1                  94.45     94.90     94.45     94.91        94.45
  O-Oc17_3                    0.01      0.01     94.08      0.01         0.01
  C-CL1W1-2                  18.73     94.45     19.31     92.76        17.63
  P-PL9AddP1                  0.01      0.01      2.99      0.01         0.01
  C-PL9Add8                   0.01      3.04      0.01      1.90         0.01
  C-1W3-4_1                   0.01      3.70      0.01      0.04         0.01
  C-1W3-5_4                   0.01      0.01     24.45      0.01         0.01
  C-1W3-3P                    0.01      7.88      0.01      0.01         0.01
  C-1W3-3_1                   0.01      0.01     33.95      0.01         0.01
  C-1W3-3_2                  29.77     29.77     49.10      0.01         0.01
  C-CDP42                    44.15     44.70     55.13     35.79        36.82
  C-FwyMdw46                 93.02     93.27     94.17     39.14        45.68
  C-FwyMdw45                 91.10     94.17     91.10     30.41        33.02
  C-1302                     94.21     94.21     94.26     91.58        93.39
  C-1303                     94.26     94.26     94.35      0.01        92.36
  C-GA1-2                     0.01      4.02      0.01      0.01         0.01
  C-GA1-3                     0.01      0.01      3.38      0.01         0.01
  C-1304                     94.30     94.35     94.30     54.70        94.30
  C-1299                     81.76     94.30     81.78     70.90        81.70
  C-1570                     63.46     69.62     71.99      6.24         0.01
  C-1298                     74.67     81.78     75.12     20.34        67.30
  C-CL2-1                     6.57      6.57     95.24      0.01         0.92
  C-In_w_cu                   0.01      1.40      0.01      0.01         0.01
  C-Oc12                      7.07      9.92      7.09      9.86         7.07
  C-Ept_2o                   93.05     93.05     93.40      0.01         0.01
  C-Ept_NC1                   0.01      0.01     92.79      0.01         0.01
  C-Ept_P2_2                  1.82      1.82      3.14      0.01         0.01
  C-WL-WL-10                  0.01      0.01     95.35      0.01         0.01
  C-WL-WL-4                   0.01      0.01      4.20      0.01         0.01
  C-WL-WL117                  0.01      0.01      4.20      0.01         0.01
  C-WL-RT-P1                  0.01      1.67      0.01      0.01         0.01
  C-WL-SamO1                  0.76      0.84      0.76      0.01         0.76
  C-WL6W1-1                   0.01      4.00      0.01      7.08         0.01
  C-WL6W2-1                   0.01      0.01      2.78      0.01         0.01
  C-WL2W13-1                  0.01      2.36      0.01      1.79         0.01
  O-WL1W2-1                   0.01      0.01      0.37      0.01         0.01
  C-WL1W2-1                   6.97     62.05      6.97     62.88         6.97
  C-WL1W2-1o                  0.01      0.01      0.37      0.01         0.01
  C-GrdnGtP1                  0.01     25.78      0.01     26.20         0.01
  C-GrdnGtM1                  0.01      0.01      7.90      0.01         0.01
  C-I94-8                     0.01      0.01      2.53      0.01         0.01
  C-I94-9                     0.01      3.68      0.01      0.01         0.01
  C-I94-10                    0.01      0.01      3.76      0.01         0.01
  C-I94-3                    18.98     18.98     20.81      0.01         0.01
  C-I94-3b                   17.03     17.03     18.49     11.42        12.47
  C-CL3-1                     0.01      0.01     95.23      0.01         0.01
  C-Oc4_GA                    0.85      3.49      0.85      3.45         0.85
  C-Om17_2                    0.01      0.01      1.34      0.01         0.01
  C-Om4_15                    0.77      1.31      0.82      0.01         0.05
  C-Op15                      1.06      1.06      3.39      0.01         0.01
  C-Oc17_3                    3.38      3.42      3.46      1.12         2.37
  C-Om4_IM                    0.70      0.70      2.39      0.01         0.01
  C-Oc10                      1.24      1.58      1.24      0.01         1.24
  C-WL-WL-21                  0.80      0.80      3.95      0.01         0.01
  C-WL-SamO2                  0.01      0.64      0.01      0.89         0.01
  C-WL5W3-3                   0.01      8.01      0.01      7.86         0.01
  C-WL5W3-2                   0.01      0.01     34.32      0.01         0.01
  C-WL3W3-3                   5.03      5.03      5.56      0.01         0.01
  C-WL3W3-4                   3.21      3.21      6.17      0.01         0.01
  C-WLMuirP1                  9.28      9.28      9.92      0.01         0.01
  C-WL5W5-1                   5.76      5.76     16.02      0.01         0.01
  C-WL4-2                    19.77     19.77     20.05      0.01         0.01
  C-WLOp13_2                  0.01      0.01      1.43      0.01         0.01
  C-WLOp13_1                  1.26      1.26      1.79      0.01         0.01
  C-PL2W1-2                   0.01      0.01     46.24      0.01         0.01
  C-EP2-4                     0.01      0.01      3.38      0.01         0.01
  C-AL1N2-1                   0.01      7.38      0.01      2.99         0.01
  C-FwyMdwW5                 65.67     65.77     87.29     27.93        32.24
  C-FwyMdw92                 93.64     93.80     93.64      0.39         4.54
  C2FwyMdwP4                 17.56     17.56     22.20      5.22         7.29
  C-FyMdw79A                  0.01     22.20      0.01     23.33         0.01
  C-BLdCDP38                  5.66      8.85      5.66      8.80         5.66
  C-BhtLd220                  0.01      6.44      0.01      3.21         0.01
  C-BhtLd215                  0.01      0.01      6.18      0.01         0.01
  C-HghHt1P1                  5.24     16.48      5.24     17.04         5.24
  C-HghHt128                  0.01      0.01      0.17      0.01         0.01
  C-WdCrsP2                   4.34      4.34      4.80      0.01         3.06
  C-WdCrs107                  1.57      4.80      1.57      2.99         1.57
  C-WdCrs106                  1.57      1.57      1.63      0.01         0.01
  C-WdCrs103                  1.31      1.31      2.23      0.01         0.01
  C-CL9Add-2                  0.01      0.01     15.56      0.01         0.01
  C-CL9Add-1                 54.73     54.73     78.12      0.01         0.01
  OLWdCrsP2                   0.01      0.01      1.38      0.01         0.01
  C-WdCrsP1                   0.01      3.29      0.01      3.19         0.01
  C-GrdRes19                  0.01      0.01      5.69      0.01         0.01
  C-GrdRes18                 15.12     15.12     20.10      0.01         0.01
  C-GrdRes17                 20.10     20.10     34.81      0.01         0.01
  C-GrdRes15                 27.05     27.05     30.67      0.01         0.01
  C-1W3-4P                    3.60      3.60      3.79      0.01         2.18
  C-1W3-3_3                  44.33     44.33     50.49      0.01         0.01
  C-PL1AddWt                 15.66     15.74     34.48      0.22         0.08
  C-PL1Add_6                 30.65     30.65     33.33      0.01         0.01
  C-PL1Add_5                 30.67     30.67     37.39      0.01         0.01
  C-DnWP1P15                  0.01     93.53      0.01     85.78         0.01
  C-DnWP1P12                  6.65      7.02      8.59      4.15         4.48
  C-GrdnGtM3                 11.91     11.91     13.92      0.01         0.01
  C-TurnbryW                  5.04      5.04     47.94      0.01         0.01
  C-DnWP126C                  0.01      0.01      0.01      0.80         0.01
  C-DnWP1_16                  0.01      0.01      3.75      0.01         0.01
  C-DnWP1146                  0.01      0.01     70.40      0.01         0.01
  C-DnWP1145                 68.79     70.40     73.06      0.01        30.41
  C-DnWP1_P1                 20.97     20.97     36.80      4.42         7.88
  C-DnWP1_P5                  0.01      5.38      0.01      5.27         0.01
  C-PLAdP1P2                  0.01      1.59      0.01      0.01         0.01
  C-PLAdP19                   0.01     54.28      0.01     43.27         0.01
  C-PLAdP17                   0.01      0.01     57.18      0.01         0.01
  C-DnWP1152                  0.01      0.01      6.46      0.01         0.01
  C-DnWP1148                  6.46      6.46      6.91      0.01         0.01
  C-DnWP1_P9                  0.01      9.42      0.01      9.20         0.01
  C-CDP28o                    0.01     21.64      0.01     21.01         0.01
  C-DnWP1172                  0.01      0.01     13.57      0.01         0.01
  C-DnWP1168                  0.01     13.57      0.01     11.01         0.01
  C-DnWP1164                  0.01     15.87      0.01      0.01         0.01
  C-DnWP1102                  7.43      7.43     10.28      0.01         0.01
  C-DnWP1101                  4.63      4.63      5.65      0.01         0.01
  Link48526                  36.53     39.22     36.53     40.25        36.53
  C-FoxRn_PD                 49.30     55.07     49.44     52.68        46.58
  C-FoxRn_6                   0.01     57.18      0.01     58.20         0.01
  C-DnWP1o10                  0.01      7.65      0.01     26.18         0.01
  C-DnWP1P17                 13.14     14.99     13.14      8.59        13.14
  C-ML2ad_P1                  0.01      5.85      0.01      5.94         0.01
  C-WetCplx4                 92.73     92.73     94.88      0.01         0.01
  C-WetCplx3                  0.01     94.19      0.01      0.01         0.01
  C-WetCpx1o                  0.01      0.01     38.29      0.01         0.01
  P-CD-P25.1                 52.75     53.52     52.75     31.27        52.75
  CCDP25.1_2                 29.21     35.63     38.66      0.01         3.57
  C-DnWP1_P8                 29.03     29.11     35.05      5.44        10.19
  C-DnWP1_P7                 32.65     32.65     33.71      1.44         0.01
  C-DnWP1P8o                  0.01     34.47      0.01     34.35         0.01
  C-DnWP1117                  0.01      0.01      2.89      0.01         0.01
  C-DnWP1111                  4.88      4.88     12.13      0.01         0.01
  C-CD-P27                   94.86     94.97     94.86     95.05        94.86
  C-DnWP1127                  1.81     88.29      1.81     94.18         1.81
  C-DnWP1112                  2.89      2.89     14.27      0.01         0.01
  C-CD-P27o                  88.29     94.40     88.29     94.63        88.29
  CWL1N2-1.1                  0.01      0.01     59.38      0.01         0.01
  C-PnCrV_12                  0.01      0.01      4.37      0.01         0.01
  C-PnCrV_10                  0.01      4.37      0.01      0.01         0.01
  CPnCrV_SPo                  0.01      0.03      0.01      0.01         0.01
  ClnWd1st17                  0.01      0.01      0.03      0.01         0.01
  ClnWd1st16                  0.01      0.03      0.01      0.04         0.01
  C-P-774                     5.62      5.97      5.62      5.10         5.62
  C-P-774o                    0.01      5.62      0.01      5.07         0.01
  COp13                      94.96     94.96     94.96      3.79         4.99
  P-Ept_P13                   5.65      6.95      5.65      6.25         5.65
  P-Ept_P18                   0.01      0.01     92.36      0.01         0.01
  P-Ept_P2_1                 13.43     13.81     13.43     13.46        13.43
  P-Ept_P2_3                 11.81     14.19     12.18      6.89        11.13
  P-WL2N2-1                  11.35     23.65     11.35     43.53        11.35
  P-WL-SamPd                 15.75     21.39     15.75     21.18        15.75
  P-Id_hud_1                 17.02     17.64     17.03     26.67        16.68
  P-Ept_P3                   95.21     95.21     95.26     94.79        95.16
  P-Ept_P10                   4.57      4.57      8.16      8.34         0.01
  P1LFyMdwP4                 17.86     18.06     28.60      6.64         7.45
  P-PL1AddP1                 43.89     43.89     96.00     57.91         0.01
  P-DnWP1_P2                 77.71     78.37     94.43     16.00        21.43
  P-RadI94P2                  0.01      4.98      0.01      0.52         0.01
  P-Ra94Dtch                  0.01      0.01      3.38      0.01         0.01
  P-WL2W7-1                  94.91     95.13     94.91     95.08        94.91
  P-WL1N3-2                  84.11     84.11     94.62      0.01         0.01
  P-WL1N3-1                  78.66     95.22     78.66     95.20        78.66
  P-WL1W3-2                   2.41      2.41     19.59     30.46         0.01
  P-CD_P20                    6.19     17.32      6.19      2.59         6.19
  CWL2-1                     94.59     94.59     94.60      0.01         0.01
  P-WL1E1-1                  90.82     90.82     94.49      0.01         0.01
  P-EP2-5                     0.01      4.22      0.01      3.80         0.01
  P-Ept_P2                   94.10     94.28     94.10      0.01         0.18
  O-Ept_P2                   92.77     92.77     94.04      0.01         0.01
  CAL1-1A                     0.01     67.11      0.01     69.44         0.01
  CAL1-1B                     0.01     74.29      0.01     27.98         0.01
  P-WL1W4-1                  23.96     94.89     23.96     95.01        23.96
  P-EP4-3                     0.01      2.41      0.01      3.60         0.01
  CWL5W3-1                   24.52     52.46     24.52     51.95        24.52
  CWL5W2-1                    0.01     20.57      0.01      2.54         0.01
  P-I94-4                     0.01     20.81      0.01     22.16         0.01
  CHudWeirA                   1.57      2.26      4.58      0.01         0.44
  CHudWeirB                   1.57      2.26      4.58      0.01         0.44
  CWL2W2-1                    0.01      3.90      0.01      1.47         0.01
  P-PL2E1-1                   0.01      0.01      8.80      0.01         0.01
  P-WL2N2-1o                  0.01      9.38      0.01      0.01         0.01
  CWL3W3-2                    0.01      6.55      0.01      6.72         0.01
  CWL3W2-3                    0.01     16.40      0.01     24.39         0.01
  CWL3W2-2                    0.01      7.88      0.01      0.01         0.01
  P-Ept_P1                   95.12     95.12     95.29      0.01         0.01
  T-Ept_P1                    0.01      0.01     93.32      0.01         0.01
  P-5                         1.82      1.82      4.00      0.01         0.01
  P-I94-11                    0.01      5.39      0.01     14.05         0.01
  P-Op14                      1.06      9.19      1.06      8.13         1.06
  P-CD-P25                   74.15     88.93     74.63     87.61        73.13
  P-EP2-2p                    0.01      5.10      0.01      0.01         0.01
  C1-WL5W4-1                  5.06      5.06      8.16      0.01         0.01
  C2-WL5W4-1                 11.73     12.56     11.73     12.31        11.73
  P-AL1N2-2                   0.01      3.71      0.01      0.01         0.01
  O-AL1N2-2                   0.01      0.01     94.63      0.01         0.01
  P-CL1Add-9                  0.13      0.13      4.04      0.01         0.01
  P-WdCrsP3                   0.01      3.56      0.01      2.94         0.01
  P-BLd1_11                   0.01      0.01      0.17      0.01         0.01
  P-HghHt1-7                  0.01      0.52      0.01      0.01         0.01
  P-FwyMdwP1                  8.37      9.27      8.37      0.32         4.33
  O-FwyMdwP1                  1.55      1.55      1.55      0.17         0.17
  P-WLMuirP2                  3.77      3.77      6.49      0.01         1.48
  P1DnWP115o                  0.01      4.95      0.01      4.32         0.01
  P2DnWP115o                  0.01      4.95      0.01      4.32         0.01
  P3DnWP115o                  0.01      4.95      0.01      4.32         0.01
  P-WetCplx1                 45.61     49.89     50.12     10.10        18.24
  P-GrdnGtP2                 23.92     26.08     23.92     36.54        20.93
  P-WL2W4-1                   0.01     94.78      0.01     94.96         0.01
  P-WL1S1-1                  94.17     94.30     94.17     94.33        94.17
  P-1530                     78.69     94.17     78.69     94.34        78.69
  P-1072                     91.74     93.64     91.74      2.82         0.27
  P-WL2W6-1                   4.07     94.73      4.07      0.01         4.07
  P-WL2W5-1A                  0.01     94.60      0.01     95.28         0.01
  P-PL2E2-1                  94.76     94.76     96.00      0.01         0.01
  P1-ML1W2-1                  0.01      1.59      0.01      4.69         0.01
  P-1077                     90.51     90.51     91.85      0.01         0.01
  C-CL1N6-1                  54.59     93.22     54.59     93.87        54.58
  C-BLFwyM23                 11.56     12.04     44.70      6.26         7.18
  O-PLPLAP1                   0.01      0.01     96.00      0.01         0.01
  C-Ept_P2_5                 10.79     11.04     12.12      5.54         5.41
  3                          11.73     12.12     12.79      0.70         0.36
  CPL_CDP28                  13.95     16.53     13.95     96.00        13.95
  CL1N5-1O                    5.75      5.75      7.15      0.01         0.01
  PLDnWP1_P8of                0.01      0.01      2.24      0.01         0.01
  C-Ept_P2_5of                0.01      0.01      0.63      0.01         0.01
  Ept_P2_4of                  0.63      0.63     94.70      0.01         0.01
  WLovfl                     89.11     89.11     90.23      0.01         0.01
  WL4-1ovfl                   0.01      0.01     92.22      0.01         0.01
  WL1W3-1of                   0.01      0.01     93.77      0.01         0.01
  IdHud-1of                   0.01      0.01      0.53      0.01         0.01
  

  Analysis begun on:  Fri Nov 29 08:45:54 2019
  Analysis ended on:  Fri Nov 29 08:48:28 2019
  Total elapsed time: 00:02:34