
  EPA STORM WATER MANAGEMENT MODEL - VERSION 5.1 (Build 5.1.013)
  --------------------------------------------------------------

  WARNING 04: minimum elevation drop used for Conduit CBR1_L_005
  WARNING 04: minimum elevation drop used for Conduit CBR1_L_006
  WARNING 04: minimum elevation drop used for Conduit CBR1_L_007
  WARNING 04: minimum elevation drop used for Conduit CBR1_L_010
  WARNING 04: minimum elevation drop used for Conduit CBR1_L_013
  WARNING 04: minimum elevation drop used for Conduit CBR1_L_014
  WARNING 04: minimum elevation drop used for Conduit CBR1_L_015
  WARNING 04: minimum elevation drop used for Conduit CBR1_L_016
  WARNING 04: minimum elevation drop used for Conduit CBR1_L_097
  WARNING 04: minimum elevation drop used for Conduit CBR2_007
  WARNING 04: minimum elevation drop used for Conduit CBR_L_096
  WARNING 04: minimum elevation drop used for Conduit CE_L_001
  WARNING 04: minimum elevation drop used for Conduit CE_L_003
  WARNING 04: minimum elevation drop used for Conduit CE_L_005
  WARNING 04: minimum elevation drop used for Conduit CE_L_007
  WARNING 04: minimum elevation drop used for Conduit CE_L_015
  WARNING 04: minimum elevation drop used for Conduit CH_L_004
  WARNING 04: minimum elevation drop used for Conduit CMT_049
  WARNING 04: minimum elevation drop used for Conduit CMT_054
  WARNING 04: minimum elevation drop used for Conduit CMT_112
  WARNING 04: minimum elevation drop used for Conduit CMT_119
  WARNING 04: minimum elevation drop used for Conduit CMT_142
  WARNING 04: minimum elevation drop used for Conduit CMT_166
  WARNING 04: minimum elevation drop used for Conduit CMT_167
  WARNING 04: minimum elevation drop used for Conduit CMT_171
  WARNING 04: minimum elevation drop used for Conduit CMT_L_005
  WARNING 04: minimum elevation drop used for Conduit CMT_L_006
  WARNING 04: minimum elevation drop used for Conduit CMT_L_008
  WARNING 04: minimum elevation drop used for Conduit CMT_L_022
  WARNING 04: minimum elevation drop used for Conduit CMT_L_026
  WARNING 04: minimum elevation drop used for Conduit CP2_001
  WARNING 04: minimum elevation drop used for Conduit CP2_L_005
  WARNING 04: minimum elevation drop used for Conduit CP2_L_006
  WARNING 04: minimum elevation drop used for Conduit CP2_L_010
  WARNING 04: minimum elevation drop used for Conduit CP3_L_020
  
  *********************************************************
  NOTE: The summary statistics displayed in this report are
  based on results found at every computational time step,  
  not just on results from each reporting time step.
  *********************************************************
  
  ****************
  Analysis Options
  ****************
  Flow Units ............... CFS
  Process Models:
    Rainfall/Runoff ........ YES
    RDII ................... NO
    Snowmelt ............... NO
    Groundwater ............ NO
    Flow Routing ........... YES
    Ponding Allowed ........ NO
    Water Quality .......... NO
  Infiltration Method ...... CURVE_NUMBER
  Flow Routing Method ...... DYNWAVE
  Surcharge Method ......... EXTRAN
  Starting Date ............ 01/01/2002 00:00:00
  Ending Date .............. 01/06/2002 12:00:00
  Antecedent Dry Days ...... 5.0
  Report Time Step ......... 01:00:00
  Wet Time Step ............ 00:10:00
  Dry Time Step ............ 23:00:00
  Routing Time Step ........ 10.00 sec
  Variable Time Step ....... YES
  Maximum Trials ........... 8
  Number of Threads ........ 1
  Head Tolerance ........... 0.005000 ft
  
  
  **************************        Volume         Depth
  Runoff Quantity Continuity     acre-feet        inches
  **************************     ---------       -------
  Total Precipitation ......     12495.544         5.900
  Evaporation Loss .........         0.000         0.000
  Infiltration Loss ........      4576.025         2.161
  Surface Runoff ...........      5444.541         2.571
  Final Storage ............      2476.269         1.169
  Continuity Error (%) .....        -0.010
  
  
  **************************        Volume        Volume
  Flow Routing Continuity        acre-feet      10^6 gal
  **************************     ---------     ---------
  Dry Weather Inflow .......         0.000         0.000
  Wet Weather Inflow .......      5443.878      1773.969
  Groundwater Inflow .......         0.000         0.000
  RDII Inflow ..............         0.000         0.000
  External Inflow ..........         0.000         0.000
  External Outflow .........      3046.771       992.836
  Flooding Loss ............         0.000         0.000
  Evaporation Loss .........         0.000         0.000
  Exfiltration Loss ........         0.000         0.000
  Initial Stored Volume ....      5102.514      1662.730
  Final Stored Volume ......      7627.426      2485.511
  Continuity Error (%) .....        -1.212
  
  
  *************************
  Highest Continuity Errors
  *************************
  Node MT_028_P (8.57%)
  Node JBR1_003 (3.33%)
  Node JP2_002 (2.98%)
  Node JMT_138 (2.87%)
  Node JMT_L_015 (-2.74%)
  
  
  ***************************
  Time-Step Critical Elements
  ***************************
  Link CP2_001 (54.37%)
  Link CMT_L_006 (21.33%)
  Link CMT_L_011 (10.49%)
  Link CMT_052 (2.84%)
  Link CBR1_L_010 (2.67%)
  
  
  ********************************
  Highest Flow Instability Indexes
  ********************************
  Link CMT_L_100 (7)
  Link CP2_L_003 (5)
  Link CE_L_014 (3)
  Link CBR1_L_009 (3)
  Link CE_L_009 (3)
  
  
  *************************
  Routing Time Step Summary
  *************************
  Minimum Time Step           :     0.50 sec
  Average Time Step           :     3.81 sec
  Maximum Time Step           :    10.00 sec
  Percent in Steady State     :    -0.00
  Average Iterations per Step :     2.00
  Percent Not Converging      :     0.03
  
  
  ***************************
  Subcatchment Runoff Summary
  ***************************
  
  ------------------------------------------------------------------------------------------------------------------------------
                            Total      Total      Total      Total     Imperv       Perv      Total       Total     Peak  Runoff
                           Precip      Runon       Evap      Infil     Runoff     Runoff     Runoff      Runoff   Runoff   Coeff
  Subcatchment                 in         in         in         in         in         in         in    10^6 gal      CFS
  ------------------------------------------------------------------------------------------------------------------------------
  SBR1_001                   5.90       0.00       0.00       1.58       1.45       2.81       4.26        1.32    17.43   0.722
  SBR1_002                   5.90       0.00       0.00       1.98       1.28       2.41       3.69        8.04    46.07   0.626
  SBR1_003                   5.90       0.00       0.00       1.97       1.46       2.42       3.88        0.48     7.04   0.658
  SBR1_004                   5.90       0.00       0.00       2.00       1.44       2.40       3.84        1.66    19.28   0.651
  SBR1_005                   5.90       0.00       0.00       1.08       1.46       3.32       4.78        0.71    10.45   0.810
  SBR1_006                   5.90       0.00       0.00       1.49       1.41       2.90       4.31        3.67    37.51   0.730
  SBR1_007                   5.90       0.00       0.00       1.37       1.46       3.02       4.48        1.14    15.71   0.759
  SBR1_008                   5.90       0.00       0.00       1.42       1.44       2.97       4.41        1.83    23.11   0.748
  SBR1_009                   5.90       0.00       0.00       1.47       1.46       2.93       4.39        0.41     6.42   0.745
  SBR1_011                   5.90       0.00       0.00       2.12       1.45       2.27       3.73        1.10    13.80   0.631
  SBR1_012                   5.90       0.00       0.00       1.48       1.45       2.91       4.36        1.19    16.12   0.740
  SBR1_013                   5.90       0.00       0.00       3.28       1.00       1.11       2.12       11.99    26.46   0.359
  SBR2_001                   5.90       0.00       0.00       2.54       0.71       1.85       2.55       30.44    65.31   0.433
  SBR2_002                   5.90       0.00       0.00       2.68       1.33       1.71       3.04        5.08    25.71   0.516
  SBR2_003                   5.90       0.00       0.00       2.45       1.32       1.94       3.26        5.89    31.46   0.552
  SBR4_001                   5.90       0.00       0.00       2.16       0.62       2.23       2.85       42.13    88.23   0.483
  SBR4_002                   5.90       0.00       0.00       1.45       1.43       2.94       4.37        2.64    30.36   0.741
  SCWC                       5.90       0.00       0.00       1.47       0.11       2.24       2.35      290.20   211.74   0.398
  SE_001                     5.90       0.00       0.00       1.13       0.83       3.26       4.09       35.79   118.16   0.694
  SE_002                     5.90       0.00       0.00       2.34       1.46       2.06       3.52        0.33     5.00   0.597
  SE_003                     5.90       0.00       0.00       2.05       1.46       2.35       3.81        0.34     5.29   0.646
  SE_004                     5.90       0.00       0.00       1.22       1.46       3.18       4.64        0.43     6.67   0.787
  SE_005                     5.90       0.00       0.00       1.53       1.46       2.86       4.32        0.58     8.60   0.733
  SE_007                     5.90       0.00       0.00       1.57       1.47       2.83       4.30        0.12     2.03   0.728
  SH_001                     5.90       0.00       0.00       2.54       0.88       1.85       2.73       21.17    55.17   0.463
  SH_002                     5.90       0.00       0.00       2.72       1.14       1.67       2.81       10.57    35.49   0.477
  SJD5_001                   5.90       0.00       0.00       3.18       0.15       1.21       1.35      123.17   118.57   0.229
  SJD5_002                   5.90       0.00       0.00       1.89       1.45       2.51       3.95        1.51    18.40   0.670
  SJD7_001                   5.90       0.00       0.00       2.67       0.38       1.72       2.09       62.16    89.95   0.355
  SMT_001                    5.90       0.00       0.00       1.43       1.03       2.96       3.99       21.06    83.72   0.677
  SMT_002                    5.90       0.00       0.00       1.97       0.84       2.42       3.26       27.96    80.16   0.552
  SMT_003                    5.90       0.00       0.00       1.90       0.85       2.49       3.35       27.91    82.50   0.567
  SMT_004                    5.90       0.00       0.00       2.22       1.18       2.17       3.34       11.21    45.30   0.567
  SMT_005                    5.90       0.00       0.00       2.03       1.32       2.36       3.68        6.41    41.08   0.625
  SMT_006                    5.90       0.00       0.00       1.70       1.15       2.69       3.85       14.02    64.33   0.652
  SMT_007                    5.90       0.00       0.00       2.45       0.98       1.94       2.91       17.60    52.74   0.494
  SMT_008                    5.90       0.00       0.00       1.73       1.26       2.66       3.91        9.62    55.52   0.663
  SMT_009                    5.90       0.00       0.00       2.12       1.10       2.27       3.36       14.55    54.80   0.570
  SMT_010                    5.90       0.00       0.00       2.58       0.71       1.81       2.52       29.68    63.48   0.427
  SMT_011                    5.90       0.00       0.00       2.39       0.89       2.00       2.89       21.77    59.93   0.489
  SMT_012                    5.90       0.00       0.00       2.77       1.03       1.62       2.65       13.98    40.01   0.449
  SMT_013                    5.90       0.00       0.00       2.92       0.91       1.47       2.38       17.16    40.56   0.404
  SMT_014                    5.90       0.00       0.00       2.17       1.31       2.22       3.54        6.57    38.65   0.599
  SMT_015                    5.90       0.00       0.00       2.41       1.28       1.98       3.26        7.29    34.98   0.553
  SMT_016                    5.90       0.00       0.00       2.89       1.13       1.50       2.63       10.29    31.94   0.446
  SMT_017                    5.90       0.00       0.00       2.48       0.64       1.91       2.55       35.87    72.80   0.432
  SMT_018                    5.90       0.00       0.00       2.70       1.04       1.69       2.73       14.00    41.65   0.463
  SMT_019                    5.90       0.00       0.00       2.10       1.14       2.29       3.42       13.16    52.06   0.580
  SMT_020                    5.90       0.00       0.00       2.46       0.82       1.93       2.76       24.63    61.41   0.467
  SMT_021                    5.90       0.00       0.00       2.01       0.87       2.38       3.25       25.84    76.38   0.551
  SMT_022                    5.90       0.00       0.00       2.30       0.67       2.09       2.76       35.88    77.82   0.468
  SMT_023                    5.90       0.00       0.00       2.23       0.63       2.16       2.79       40.37    84.42   0.473
  SMT_024                    5.90       0.00       0.00       2.43       0.60       1.96       2.55       40.28    78.35   0.433
  SMT_025                    5.90       0.00       0.00       2.03       1.31       2.36       3.67        6.84    42.16   0.622
  SMT_026                    5.90       0.00       0.00       2.21       0.94       2.18       3.12       20.93    63.88   0.528
  SMT_027                    5.90       0.00       0.00       2.56       0.70       1.82       2.53       30.35    64.62   0.428
  SMT_028                    5.90       0.00       0.00       2.29       0.43       2.10       2.53       64.20   102.28   0.429
  SMT_029                    5.90       0.00       0.00       1.92       1.39       2.47       3.86        4.01    34.44   0.654
  SMT_030                    5.90       0.00       0.00       2.60       1.45       1.79       3.24        1.11    12.16   0.549
  SMT_032                    5.90       0.00       0.00       1.86       1.46       2.53       3.99        0.84    11.59   0.677
  SMT_033                    5.90       0.00       0.00       1.98       1.46       2.41       3.87        0.74    10.26   0.656
  SMT_034                    5.90       0.00       0.00       2.19       1.34       2.20       3.54        5.48    35.43   0.600
  SMT_035                    5.90       0.00       0.00       1.98       1.46       2.42       3.88        0.63     8.96   0.657
  SMT_036                    5.90       0.00       0.00       2.30       1.15       2.09       3.24       11.83    45.49   0.549
  SMT_037                    5.90       0.00       0.00       2.90       1.40       1.50       2.89        2.84    17.54   0.490
  SP2_001                    5.90       0.00       0.00       2.34       1.41       2.05       3.46        2.79    23.83   0.586
  SP2_002                    5.90       0.00       0.00       1.87       1.27       2.52       3.79        8.75    50.12   0.642
  SP2_003                    5.90       0.00       0.00       2.01       1.46       2.38       3.85        0.53     7.69   0.652
  SP2_004                    5.90       0.00       0.00       1.55       1.46       2.84       4.30        0.67     9.79   0.730
  SP2_005                    5.90       0.00       0.00       1.58       1.46       2.81       4.27        0.97    13.46   0.723
  SP2_006                    5.90       0.00       0.00       1.14       1.43       3.26       4.69        2.70    32.44   0.795
  SP2_007                    5.90       0.00       0.00       2.12       1.46       2.28       3.74        0.66     9.18   0.633
  SP2_008                    5.90       0.00       0.00       2.87       1.45       1.52       2.97        0.97    10.02   0.503
  SP2_009                    5.90       0.00       0.00       2.83       1.43       1.56       3.00        1.67    14.16   0.508
  SP3_001                    5.90       0.00       0.00       2.56       0.47       1.83       2.29       51.74    84.63   0.389
  SP3_002                    5.90       0.00       0.00       2.03       1.19       2.36       3.56       11.31    50.65   0.603
  SP3_003                    5.90       0.00       0.00       2.50       0.86       1.89       2.75       22.52    57.79   0.466
  SP3_004                    5.90       0.00       0.00       2.71       0.72       1.68       2.40       27.48    57.70   0.407
  SP3_005                    5.90       0.00       0.00       2.60       0.77       1.79       2.56       26.05    58.57   0.433
  SP3_006                    5.90       0.00       0.00       2.85       0.58       1.54       2.12       35.18    62.21   0.359
  SP3_008                    5.90       0.00       0.00       2.38       1.30       2.01       3.31        6.71    34.53   0.561
  SP3_009                    5.90       0.00       0.00       1.73       1.40       2.66       4.06        3.70    35.17   0.688
  SP3_010                    5.90       0.00       0.00       2.52       0.69       1.87       2.56       31.72    67.34   0.434
  SURC                       5.90       0.00       0.00       0.72       0.19       3.21       3.39      234.91   229.32   0.575
  
  
  ******************
  Node Depth Summary
  ******************
  
  ---------------------------------------------------------------------------------
                                 Average  Maximum  Maximum  Time of Max    Reported
                                   Depth    Depth      HGL   Occurrence   Max Depth
  Node                 Type         Feet     Feet     Feet  days hr:min        Feet
  ---------------------------------------------------------------------------------
  BR1_003_M            JUNCTION     0.46     1.13   924.14     0  19:07        1.13
  BR1_004_M            JUNCTION     0.78     2.79   926.30     0  17:24        2.79
  BR1_007_M            JUNCTION     0.61     3.75   928.24     0  15:03        3.70
  BR1_009_M            JUNCTION     0.14     1.81   928.82     0  12:07        1.77
  BR1_011_M            JUNCTION     1.03     2.92   925.23     0  13:07        2.88
  BR1_012_M            JUNCTION     0.30     3.06   929.40     0  12:43        2.97
  E_001_M7             JUNCTION     0.09     1.14   929.74     0  12:08        1.12
  E_002_M2             JUNCTION     1.01     6.44   935.50     0  15:10        6.44
  E_005_M              JUNCTION     0.21     1.78   929.27     0  12:37        1.77
  E_007_M              JUNCTION     3.34     3.54   926.55     1  15:42        3.54
  JBR1_001             JUNCTION     0.20     0.51   946.41     0  20:58        0.51
  JBR1_002             JUNCTION     0.47     0.86   923.66     0  12:20        0.84
  JBR1_003             JUNCTION     0.36     0.51   925.51     0  14:38        0.51
  JBR1_999             JUNCTION     0.28     0.70   922.70     0  13:25        0.68
  JBR1_L_002           JUNCTION     0.43     0.77   928.00     0  13:17        0.76
  JBR2_001             JUNCTION     0.22     0.58   927.75     0  13:47        0.58
  JBR2_002             JUNCTION     0.05     0.28   963.88     0  12:08        0.27
  JBR2_003             JUNCTION     0.00     0.00   976.89     0  00:00        0.00
  JBR2_004             JUNCTION     0.00     0.00  1000.89     0  00:00        0.00
  JH_001               JUNCTION     0.31     0.40   926.62     0  14:53        0.40
  JMT_001              JUNCTION     2.98     3.20   885.49     3  04:24        3.20
  JMT_002              JUNCTION     4.55     4.92   886.43     1  03:25        4.92
  JMT_003              JUNCTION     2.97     3.34   886.44     1  03:26        3.34
  JMT_004              JUNCTION     3.75     4.63   887.88     3  01:04        4.63
  JMT_005              JUNCTION     3.64     4.37   888.01     3  01:04        4.37
  JMT_006              JUNCTION     3.75     4.13   888.47     3  00:54        4.13
  JMT_007              JUNCTION     3.13     3.48   888.76     3  00:46        3.48
  JMT_008              JUNCTION     2.42     2.77   889.01     3  00:42        2.77
  JMT_009              JUNCTION     5.54     6.21   891.19     3  00:32        6.21
  JMT_010              JUNCTION     4.94     5.58   891.19     3  00:32        5.58
  JMT_011              JUNCTION     3.49     4.04   891.20     3  00:31        4.04
  JMT_012              JUNCTION     3.21     3.71   891.20     3  00:31        3.71
  JMT_014              JUNCTION     4.26     4.97   893.76     0  23:17        4.90
  JMT_016              JUNCTION     8.41     9.04   897.84     2  23:24        9.04
  JMT_017              JUNCTION     8.29     8.92   897.84     2  23:24        8.92
  JMT_018              JUNCTION     9.08     9.71   897.71     2  23:26        9.71
  JMT_019              JUNCTION     6.90     7.50   897.89     2  23:20        7.50
  JMT_021              JUNCTION     5.09     5.61   897.89     2  23:20        5.61
  JMT_023              JUNCTION     4.89     5.47   898.07     2  23:10        5.47
  JMT_024              JUNCTION     4.99     5.54   898.08     2  23:10        5.54
  JMT_026              JUNCTION     4.68     5.21   899.34     0  14:40        5.17
  JMT_027              JUNCTION     4.71     5.35   899.81     2  22:39        5.35
  JMT_028              JUNCTION     4.69     5.27   900.00     2  22:38        5.27
  JMT_029              JUNCTION     3.90     4.39   902.02     2  21:57        4.39
  JMT_030              JUNCTION     5.49     6.07   903.62     2  21:51        6.07
  JMT_031              JUNCTION     5.18     5.87   903.96     2  21:51        5.87
  JMT_032              JUNCTION     5.14     5.79   904.05     2  21:50        5.79
  JMT_034              JUNCTION     5.10     5.65   904.79     2  21:42        5.65
  JMT_035              JUNCTION     5.93     6.86   905.85     2  21:36        6.86
  JMT_036              JUNCTION     5.58     6.47   905.92     2  21:35        6.47
  JMT_037              JUNCTION     4.77     5.59   906.03     2  21:34        5.59
  JMT_038              JUNCTION     4.17     5.00   906.35     2  21:30        5.00
  JMT_040              JUNCTION     6.09     6.43   907.85     2  06:11        6.42
  JMT_041              JUNCTION     6.27     7.08   908.94     2  20:57        7.08
  JMT_042              JUNCTION     6.32     7.15   909.10     2  20:58        7.15
  JMT_043              JUNCTION     6.37     7.19   909.23     2  20:58        7.19
  JMT_044              JUNCTION     5.61     6.41   909.56     2  20:55        6.41
  JMT_045              JUNCTION     5.29     6.05   909.77     2  20:49        6.05
  JMT_046              JUNCTION     5.26     6.03   909.83     2  20:47        6.03
  JMT_047              JUNCTION     4.63     5.38   910.20     2  20:28        5.38
  JMT_048              JUNCTION     5.55     6.34   910.24     2  20:26        6.34
  JMT_049              JUNCTION     6.62     7.74   911.64     2  19:42        7.74
  JMT_051              JUNCTION     6.64     7.75   911.66     2  19:41        7.75
  JMT_052              JUNCTION     5.99     7.18   911.90     2  19:29        7.18
  JMT_053              JUNCTION     5.80     6.79   911.95     2  19:27        6.79
  JMT_054              JUNCTION     6.38     7.43   912.59     2  18:56        7.43
  JMT_055              JUNCTION     5.72     6.73   912.63     2  18:54        6.73
  JMT_057              JUNCTION     6.18     7.27   912.76     2  18:47        7.27
  JMT_058              JUNCTION     5.58     6.63   912.92     2  18:38        6.63
  JMT_059              JUNCTION     5.10     6.13   912.97     2  18:35        6.13
  JMT_061              JUNCTION     6.08     7.10   913.01     2  18:30        7.10
  JMT_066              JUNCTION     3.87     4.77   913.27     2  16:13        4.77
  JMT_067              JUNCTION     5.58     7.17   915.17     2  08:35        7.17
  JMT_068              JUNCTION     6.17     7.75   915.18     2  08:34        7.75
  JMT_069              JUNCTION     5.13     6.69   915.18     2  08:34        6.69
  JMT_070              JUNCTION     4.49     6.02   915.18     2  08:34        6.02
  JMT_071              JUNCTION     6.26     7.86   915.18     2  08:34        7.86
  JMT_072              JUNCTION     5.22     6.77   915.18     2  08:34        6.77
  JMT_073              JUNCTION     4.55     6.04   915.19     2  08:32        6.04
  JMT_075              JUNCTION     5.09     6.45   915.22     2  08:15        6.45
  JMT_076              JUNCTION     5.57     6.98   915.31     2  07:16        6.98
  JMT_079A             JUNCTION     6.01     7.53   915.60     2  04:57        7.53
  JMT_080              JUNCTION     5.87     7.42   915.67     2  04:37        7.42
  JMT_081              JUNCTION     3.58     4.98   915.71     2  04:24        4.98
  JMT_082              JUNCTION     4.46     5.58   915.88     2  02:05        5.58
  JMT_083              JUNCTION     3.62     4.68   916.05     2  00:52        4.68
  JMT_084              JUNCTION     3.56     4.70   916.51     1  21:13        4.70
  JMT_086              JUNCTION     3.53     4.78   916.90     1  19:47        4.78
  JMT_087              JUNCTION     4.71     5.93   917.05     1  19:32        5.93
  JMT_088              JUNCTION     3.96     5.15   917.06     1  19:31        5.15
  JMT_089              JUNCTION     3.39     4.52   917.06     1  19:30        4.52
  JMT_090              JUNCTION     3.71     4.71   917.13     1  19:06        4.71
  JMT_091              JUNCTION     3.37     4.31   917.16     1  18:52        4.31
  JMT_092              JUNCTION     4.82     5.78   917.76     1  11:08        5.78
  JMT_093              JUNCTION     3.81     4.75   917.78     1  11:16        4.74
  JMT_094              JUNCTION     3.90     4.88   917.89     1  12:31        4.88
  JMT_095              JUNCTION     7.63     8.81   917.89     1  12:33        8.81
  JMT_096              JUNCTION     7.70     9.06   918.15     1  13:17        9.06
  JMT_098              JUNCTION     4.40     5.61   918.16     1  13:17        5.61
  JMT_099              JUNCTION     3.95     5.08   918.18     1  13:17        5.08
  JMT_100              JUNCTION     3.89     5.05   918.55     1  13:11        5.05
  JMT_101              JUNCTION     5.07     6.24   918.64     1  13:06        6.24
  JMT_102              JUNCTION     4.81     5.95   918.65     1  13:05        5.95
  JMT_103              JUNCTION     5.11     6.21   918.69     1  12:56        6.21
  JMT_104              JUNCTION     5.26     6.21   918.81     1  12:17        6.21
  JMT_105              JUNCTION     5.19     6.13   918.90     1  11:48        6.13
  JMT_106              JUNCTION     4.43     5.36   918.95     1  11:32        5.36
  JMT_107              JUNCTION     4.16     5.05   919.01     1  11:10        5.05
  JMT_108              JUNCTION     4.99     5.93   919.23     1  10:16        5.93
  JMT_109              JUNCTION     4.32     5.19   919.25     1  10:13        5.19
  JMT_110              JUNCTION     3.60     4.42   919.25     1  10:11        4.42
  JMT_111              JUNCTION     3.77     4.59   919.28     1  10:02        4.59
  JMT_112              JUNCTION     3.79     4.61   919.30     1  09:58        4.61
  JMT_113              JUNCTION     3.08     3.88   919.31     1  09:54        3.88
  JMT_114              JUNCTION     4.00     4.85   919.47     1  09:03        4.85
  JMT_115              JUNCTION     3.78     4.62   919.49     1  08:56        4.62
  JMT_116              JUNCTION     3.83     4.65   919.53     1  08:43        4.65
  JMT_117              JUNCTION     3.09     3.89   919.55     1  08:36        3.89
  JMT_118              JUNCTION     3.97     5.01   920.02     1  06:46        5.01
  JMT_119              JUNCTION     4.11     5.26   920.27     1  06:02        5.26
  JMT_120              JUNCTION     4.11     5.28   920.32     1  05:52        5.28
  JMT_121              JUNCTION     3.98     5.12   920.38     1  06:19        5.12
  JMT_122              JUNCTION     7.23     8.52   920.38     1  06:20        8.52
  JMT_123              JUNCTION     7.30     8.63   920.43     1  06:22        8.63
  JMT_125              JUNCTION     4.20     5.38   920.43     1  06:22        5.38
  JMT_126              JUNCTION     4.39     5.57   920.43     1  06:22        5.57
  JMT_127              JUNCTION     4.20     5.28   920.50     1  06:08        5.28
  JMT_128              JUNCTION     4.60     6.01   921.12     1  05:33        6.01
  JMT_129              JUNCTION     4.07     5.31   921.14     1  05:28        5.30
  JMT_131              JUNCTION     7.08     8.39   921.14     1  05:28        8.39
  JMT_132              JUNCTION     6.86     8.17   921.14     1  05:23        8.17
  JMT_134              JUNCTION     3.32     4.48   921.15     1  05:20        4.48
  JMT_135              JUNCTION     4.13     5.21   921.27     1  03:58        5.21
  JMT_136              JUNCTION     3.25     4.29   921.35     1  03:01        4.29
  JMT_137              JUNCTION     4.17     5.33   921.51     0  23:37        5.33
  JMT_138              JUNCTION     3.27     4.36   921.67     0  22:56        4.36
  JMT_139              JUNCTION     4.33     5.19   922.08     0  21:58        5.19
  JMT_141              JUNCTION     6.43     7.38   922.10     0  21:56        7.38
  JMT_142              JUNCTION     6.43     7.38   922.10     0  21:55        7.38
  JMT_143              JUNCTION     4.29     5.14   922.10     0  21:55        5.14
  JMT_144              JUNCTION     3.56     4.37   922.12     0  21:46        4.37
  JMT_145              JUNCTION     3.64     4.43   922.15     0  21:32        4.43
  JMT_146              JUNCTION     5.08     5.91   922.15     0  21:36        5.91
  JMT_147              JUNCTION     4.08     4.87   922.14     0  21:42        4.87
  JMT_148              JUNCTION     4.13     4.92   922.13     0  21:43        4.92
  JMT_149              JUNCTION     5.14     5.96   922.12     0  21:48        5.96
  JMT_150              JUNCTION     4.97     5.78   922.11     0  21:50        5.78
  JMT_999              JUNCTION     7.06     7.67   897.87     2  23:22        7.67
  JMT_L_001            JUNCTION     0.19     0.58   911.67     0  12:09        0.56
  JMT_L_003            JUNCTION     0.57     1.25   924.99     0  19:02        1.25
  JMT_L_004            JUNCTION     0.45     0.80   934.77     1  06:02        0.80
  JMT_L_005            JUNCTION     0.54     1.08   962.63     1  06:07        1.08
  JMT_L_008            JUNCTION     0.03     0.06   995.36     0  19:47        0.06
  JMT_L_009            JUNCTION     0.32     0.54   980.14     1  00:30        0.54
  JMT_L_010            JUNCTION     0.38     0.64   970.94     1  00:37        0.64
  JMT_L_011            JUNCTION     0.50     0.90   955.50     1  05:18        0.90
  JMT_L_013            JUNCTION     0.08     0.25   939.65     0  13:38        0.25
  JMT_L_014            JUNCTION     0.13     0.44   955.94     0  12:50        0.43
  JMT_L_015            JUNCTION     0.08     0.18   969.38     0  20:51        0.18
  JMT_L_999            JUNCTION     0.70     1.85   921.71     0  13:07        1.84
  JP2_002              JUNCTION     1.83     2.10   925.60     1  01:56        2.10
  JP2_005              JUNCTION     0.68     0.85   924.85     0  17:40        0.85
  JP2_015              JUNCTION     2.02     2.29   925.61     1  01:52        2.29
  JP3_003              JUNCTION     1.72     2.00   925.60     1  01:59        2.00
  JP3_004              JUNCTION     1.41     1.87   925.57     1  02:08        1.87
  JP3_007              JUNCTION     0.79     0.90   925.65     1  02:28        0.90
  MT_032_M             JUNCTION     0.47     2.66   924.67     0  13:11        2.52
  MT_033_M             JUNCTION     1.21     3.22   926.73     0  15:23        3.22
  P2_003_M             JUNCTION     1.05     2.39   931.40     0  13:33        2.31
  P2_004_M             JUNCTION     1.20     3.42   932.54     0  12:28        3.38
  P2_005_M             JUNCTION     1.17     2.69   932.51     0  18:01        2.69
  P2_006_M             JUNCTION     1.04     2.50   933.03     0  21:40        2.50
  OUT                  OUTFALL      0.00     0.00   860.00     0  00:00        0.00
  BR1_003_P            STORAGE      0.82     2.69   925.70     0  19:06        2.69
  BR1_004_P            STORAGE      0.54     1.93   926.44     0  17:13        1.93
  BR1_005_P            STORAGE      0.05     0.62   924.83     0  12:00        0.62
  BR1_007_P            STORAGE      0.63     3.70   928.19     0  15:07        3.70
  BR1_008_P            STORAGE      0.43     2.78   930.05     0  13:34        2.77
  BR1_009_P            STORAGE      0.15     1.53   929.04     0  12:07        1.49
  BR1_011_P            STORAGE      0.37     2.19   926.20     0  13:04        2.18
  BR1_012_P            STORAGE      0.35     2.70   930.76     0  12:43        2.69
  BR1_013_P            STORAGE      0.82     2.37   929.61     0  14:06        2.37
  BR2_001_P            STORAGE      0.22     0.58   927.76     0  13:46        0.57
  BR2_002_P            STORAGE     12.62    14.06  1004.07     5  12:00       14.06
  BR2_003_P            STORAGE      0.11     0.30   963.91     0  12:06        0.29
  BR4_001_P            STORAGE      2.43     3.31   913.01     2  18:30        3.31
  E_001_P              STORAGE      1.50     1.69   926.55     1  15:38        1.69
  E_003_P              STORAGE      1.97     7.30   936.30     0  15:10        7.29
  E_004_P              STORAGE      0.17     2.30   931.06     0  12:08        2.24
  E_005_P              STORAGE      0.23     2.00   929.49     0  12:37        1.99
  E_007_P              STORAGE      1.85     2.04   926.55     1  15:42        2.04
  H_001_P              STORAGE      1.24     1.45   931.32     1  14:33        1.45
  JD5_001_P            STORAGE      1.40     2.21   921.51     1  08:16        2.21
  MT_019_P             STORAGE      0.91     1.31   934.83     1  06:01        1.31
  MT_021_P             STORAGE      6.70     7.69   963.30     1  05:52        7.69
  MT_022_P             STORAGE      1.31     2.62   965.60     1  00:11        2.62
  MT_023_P             STORAGE      4.31     5.69   967.20     0  20:13        5.05
  MT_025_P             STORAGE      1.60     5.23   960.14     0  15:23        5.22
  MT_026_P             STORAGE      3.60     9.53   991.45     1  00:28        9.53
  MT_027_P             STORAGE     22.03    24.30   994.31     5  12:00       24.30
  MT_028_P             STORAGE      5.32     5.63   921.97     3  12:28        5.63
  MT_029_P             STORAGE      0.85     2.06  1000.37     0  19:42        2.06
  MT_030_P             STORAGE      0.45     2.84   938.75     0  14:10        2.84
  MT_032_P             STORAGE      0.61     2.01   926.02     0  13:11        2.00
  MT_033_P             STORAGE      0.57     2.37   926.88     0  15:25        2.37
  MT_035_P             STORAGE      0.59     2.46   926.97     0  15:06        2.46
  MT_036_P             STORAGE      0.21     0.54   934.55     0  13:01        0.53
  MT_037_P             STORAGE      1.48     1.62   928.12     0  13:12        1.61
  P2_003_P             STORAGE      2.26     3.98   931.98     0  13:32        3.97
  P2_004_P             STORAGE      0.20     2.18   932.87     0  12:26        2.12
  P2_005_P             STORAGE      2.69     4.40   932.79     0  19:47        4.40
  P2_006_P             STORAGE      0.87     2.20   933.18     0  23:25        2.20
  P2_007_P             STORAGE      2.68     3.22   929.87     0  15:26        3.21
  P2_008_P             STORAGE      2.12     2.76   929.42     0  15:24        2.75
  P3_001_P             STORAGE      2.39     3.12   927.22     0  18:54        3.12
  P3_002_P             STORAGE      4.21     4.71   934.84     5  12:00        4.71
  P3_003_P             STORAGE      0.14     0.46   950.07     0  13:02        0.46
  P3_004_P             STORAGE      1.77     5.21   951.45     0  20:36        5.21
  P3_005_P             STORAGE      2.80     3.53   960.03     1  02:20        3.53
  P3_006_P             STORAGE      1.49     1.73   928.73     0  18:17        1.73
  P3_010_P             STORAGE      1.70     2.03   963.54     5  12:00        2.03
  PELTIER_P            STORAGE      5.27     5.49   885.49     3  04:27        5.49
  
  
  *******************
  Node Inflow Summary
  *******************
  
  -------------------------------------------------------------------------------------------------
                                  Maximum  Maximum                  Lateral       Total        Flow
                                  Lateral    Total  Time of Max      Inflow      Inflow     Balance
                                   Inflow   Inflow   Occurrence      Volume      Volume       Error
  Node                 Type           CFS      CFS  days hr:min    10^6 gal    10^6 gal     Percent
  -------------------------------------------------------------------------------------------------
  BR1_003_M            JUNCTION      0.00     2.93     0  19:06           0        2.13       0.005
  BR1_004_M            JUNCTION      0.00     3.22     0  12:56           0        1.66       0.016
  BR1_007_M            JUNCTION      0.00    13.21     0  14:50           0        2.99      -0.006
  BR1_009_M            JUNCTION      0.00     4.38     0  12:07           0       0.413       0.001
  BR1_011_M            JUNCTION      0.00     5.58     0  13:02           0         1.1       0.007
  BR1_012_M            JUNCTION      0.00     6.70     0  12:43           0        1.19       0.001
  E_001_M7             JUNCTION      0.00     4.28     0  12:07           0       0.429      -0.144
  E_002_M2             JUNCTION      0.00     4.69     0  15:10           0           2      -0.002
  E_005_M              JUNCTION      0.00     3.39     0  12:36           0       0.576       0.001
  E_007_M              JUNCTION      0.00     1.89     0  12:00           0       0.096       0.699
  JBR1_001             JUNCTION      0.00    46.97     0  20:36           0        33.6       0.305
  JBR1_002             JUNCTION    101.02   129.41     0  12:00          13        33.2      -1.074
  JBR1_003             JUNCTION      0.00    29.41     0  13:56           0        12.1       3.450
  JBR1_999             JUNCTION      0.00   144.02     0  12:04           0        34.7       2.122
  JBR1_L_002           JUNCTION      0.00    27.96     0  11:58           0          12      -0.989
  JBR2_001             JUNCTION      0.00    89.98     0  13:01           0        36.3       0.594
  JBR2_002             JUNCTION      0.00    30.94     0  12:01           0        5.88       0.037
  JBR2_003             JUNCTION      0.00     0.00     0  00:00           0           0       0.000 gal
  JBR2_004             JUNCTION      0.00     0.00     0  00:00           0           0       0.000 gal
  JH_001               JUNCTION      0.00    13.88     0  13:15           0        19.8       1.068
  JMT_001              JUNCTION      0.00   684.08     0  00:18           0         741       1.402
  JMT_002              JUNCTION     83.72   294.11     3  01:08        21.1         748       1.851
  JMT_003              JUNCTION      0.00   292.77     3  01:04           0         729       0.647
  JMT_004              JUNCTION      0.00   292.78     3  00:58           0         729       0.014
  JMT_005              JUNCTION      0.00   292.79     3  00:43           0         729       0.046
  JMT_006              JUNCTION      0.00   292.80     3  00:36           0         730       0.059
  JMT_007              JUNCTION     80.16   292.80     3  00:33          28         730       0.040
  JMT_008              JUNCTION      0.00   290.79     3  00:36           0         703       0.031
  JMT_009              JUNCTION      0.00   290.79     3  00:26           0         706       0.473
  JMT_010              JUNCTION      0.00   290.81     3  00:03           0         715       1.284
  JMT_011              JUNCTION      0.00   290.87     2  23:41           0         720       0.761
  JMT_012              JUNCTION      0.00   290.91     2  23:31           0         721       0.196
  JMT_014              JUNCTION      0.00   290.90     2  23:26           0         722       0.006
  JMT_016              JUNCTION     82.50   290.90     2  23:12        27.9         732       1.099
  JMT_017              JUNCTION      0.00   288.90     2  23:06           0         714       1.476
  JMT_018              JUNCTION      0.00   290.90     2  23:23           0         722       0.135
  JMT_019              JUNCTION      0.00   288.91     2  22:59           0         718       0.260
  JMT_021              JUNCTION      0.00   288.91     2  22:58           0         719       0.127
  JMT_023              JUNCTION      0.00   288.92     2  22:55           0         720       0.106
  JMT_024              JUNCTION      0.00   288.93     2  22:45           0         723       0.414
  JMT_026              JUNCTION      0.00   288.93     2  22:36           0         723       0.091
  JMT_027              JUNCTION      0.00   288.93     2  22:33           0         724       0.022
  JMT_028              JUNCTION      0.00   289.00     2  21:55           0         729       0.755
  JMT_029              JUNCTION     45.30   288.62     2  21:48        11.2         723       0.113
  JMT_030              JUNCTION      0.00   287.74     2  21:50           0         712       0.024
  JMT_031              JUNCTION      0.00   287.75     2  21:47           0         712       0.026
  JMT_032              JUNCTION      0.00   287.75     2  21:39           0         713       0.069
  JMT_034              JUNCTION      0.00   287.75     2  21:34           0         713       0.087
  JMT_035              JUNCTION      0.00   287.75     2  21:31           0         713       0.019
  JMT_036              JUNCTION      0.00   287.76     2  21:22           0         714       0.055
  JMT_037              JUNCTION     64.33   287.77     2  21:12          14         714       0.062
  JMT_038              JUNCTION      0.00   286.81     2  21:04           0         701       0.051
  JMT_040              JUNCTION      0.00   286.80     2  21:04           0         701       0.102
  JMT_041              JUNCTION      0.00   286.80     2  21:03           0         701       0.013
  JMT_042              JUNCTION      0.00   286.80     2  20:56           0         702       0.046
  JMT_043              JUNCTION     52.74   286.81     2  20:41        17.6         702       0.092
  JMT_044              JUNCTION      0.00   285.21     2  20:29           0         686       0.120
  JMT_045              JUNCTION     55.52   285.24     2  20:14        9.62         687       0.101
  JMT_046              JUNCTION      0.00   284.69     2  19:57           0         678       0.072
  JMT_047              JUNCTION      0.00   284.73     2  19:41           0         678       0.065
  JMT_048              JUNCTION      0.00   284.75     2  19:34           0         678       0.075
  JMT_049              JUNCTION      0.00   284.81     2  19:01           0         681       0.435
  JMT_051              JUNCTION      0.00   284.96     2  18:26           0         684       0.413
  JMT_052              JUNCTION      0.00   285.03     2  18:12           0         684       0.038
  JMT_053              JUNCTION      0.00   285.15     2  17:52           0         685       0.068
  JMT_054              JUNCTION     54.80   285.36     2  17:15        14.5         686       0.159
  JMT_055              JUNCTION      0.00   284.27     2  16:58           0         672       0.112
  JMT_057              JUNCTION      0.00   284.36     2  16:47           0         672       0.041
  JMT_058              JUNCTION      0.00   284.52     2  16:29           0         673       0.061
  JMT_059              JUNCTION      0.00   285.54     2  15:08           0         674       0.178
  JMT_061              JUNCTION     35.43   302.89     2  08:45        5.48         688       0.377
  JMT_066              JUNCTION      0.00   302.80     2  08:44           0         633       0.058
  JMT_067              JUNCTION      0.00   303.07     2  07:35           0         635       0.288
  JMT_068              JUNCTION     63.48   301.27     2  06:47        29.7         619       0.499
  JMT_069              JUNCTION      0.00   300.26     2  05:36           0         593       0.630
  JMT_070              JUNCTION      0.00   304.71     2  03:31           0         592       0.249
  JMT_071              JUNCTION      0.00   320.54     1  23:39           0         597       0.800
  JMT_072              JUNCTION      0.00   345.00     1  20:59           0         601       0.795
  JMT_073              JUNCTION      0.00   364.51     1  19:39           0         603       0.249
  JMT_075              JUNCTION      0.00   369.31     1  19:30           0         604       0.103
  JMT_076              JUNCTION      0.00   369.51     1  19:29           0         604       0.040
  JMT_079A             JUNCTION      0.00   369.64     1  19:29           0         604       0.025
  JMT_080              JUNCTION      0.00   371.93     1  19:20           0         606       0.058
  JMT_081              JUNCTION     40.56   374.10     1  19:12        17.2         606       0.013
  JMT_082              JUNCTION     40.01   372.67     1  19:10          14         587       0.028
  JMT_083              JUNCTION     38.65   371.21     1  19:09        6.57         574       0.031
  JMT_084              JUNCTION      0.00   370.61     1  19:06           0         568       0.029
  JMT_086              JUNCTION      0.00   370.83     1  18:58           0         568       0.029
  JMT_087              JUNCTION      0.00   372.03     1  18:22           0         569       0.303
  JMT_088              JUNCTION      0.00   377.01     1  16:57           0         571       0.267
  JMT_089              JUNCTION      0.00   385.47     1  14:39           0         571       0.063
  JMT_090              JUNCTION      0.00   391.45     1  13:55           0         571       0.014
  JMT_091              JUNCTION      0.00   398.55     1  13:33           0         575       0.706
  JMT_092              JUNCTION     34.98   390.46     1  13:30        7.29         556       0.050
  JMT_093              JUNCTION     89.95   387.83     1  13:26        62.2         553       0.013
  JMT_094              JUNCTION      0.00   358.18     1  13:55           0         497       0.611
  JMT_095              JUNCTION      0.00   357.77     1  13:49           0         500       1.576
  JMT_096              JUNCTION      0.00   357.61     1  13:41           0         500       0.420
  JMT_098              JUNCTION      0.00   357.41     1  13:22           0         501       0.348
  JMT_099              JUNCTION      0.00   357.46     1  13:05           0         502       0.148
  JMT_100              JUNCTION      0.00   357.68     1  12:44           0         502       0.062
  JMT_101              JUNCTION      0.00   358.74     1  12:04           0         503       0.097
  JMT_102              JUNCTION      0.00   361.82     1  11:00           0         503       0.061
  JMT_103              JUNCTION      0.00   367.64     1  09:47           0         503       0.047
  JMT_104              JUNCTION      0.00   370.45     1  09:24           0         503       0.025
  JMT_105              JUNCTION      0.00   372.04     1  09:10           0         504       0.186
  JMT_106              JUNCTION      0.00   373.77     1  08:56           0         505       0.145
  JMT_107              JUNCTION     18.40   289.54     1  08:28        1.51         386       0.829
  JMT_108              JUNCTION      0.00   247.50     1  08:59           0         341       0.307
  JMT_109              JUNCTION      0.00   248.54     1  08:39           0         342       0.180
  JMT_110              JUNCTION     31.94   249.70     1  08:21        10.3         342       0.083
  JMT_111              JUNCTION     72.80   247.94     1  08:10        35.9         335       0.064
  JMT_112              JUNCTION      0.00   231.73     1  08:28           0         302       0.167
  JMT_113              JUNCTION      0.00   233.14     1  08:04           0         301       0.086
  JMT_114              JUNCTION      0.00   234.10     1  07:42           0         301       0.063
  JMT_115              JUNCTION      0.00   235.72     1  07:14           0         301       0.086
  JMT_116              JUNCTION      0.00   238.08     1  06:36           0         301       0.127
  JMT_117              JUNCTION      0.00   240.35     1  05:44           0         301       0.079
  JMT_118              JUNCTION      0.00   241.83     1  05:20           0         301       0.034
  JMT_119              JUNCTION      0.00   242.48     1  05:06           0         300       0.064
  JMT_120              JUNCTION      0.00   243.76     1  04:28           0         305       1.129
  JMT_121              JUNCTION      0.00   149.71     1  07:11           0         206       0.300
  JMT_122              JUNCTION      0.00   149.09     1  06:34           0         208       1.769
  JMT_123              JUNCTION      0.00   149.15     1  06:03           0         210       0.904
  JMT_125              JUNCTION      0.00   204.90     0  16:06           0         212       0.903
  JMT_126              JUNCTION      0.00   173.42     0  15:59           0         213       0.848
  JMT_127              JUNCTION     41.65   150.24     1  05:17          14         213       0.046
  JMT_128              JUNCTION      0.00   144.48     1  05:10           0         200       0.608
  JMT_129              JUNCTION      0.00    99.04     0  20:48           0         126       0.033
  JMT_131              JUNCTION      0.00   102.95     0  20:19           0         126       0.559
  JMT_132              JUNCTION      0.00   107.65     0  19:24           0         127       0.614
  JMT_134              JUNCTION     61.41   109.65     0  19:00        24.6         127       0.034
  JMT_135              JUNCTION      0.00    75.08     0  21:48           0         103       0.121
  JMT_136              JUNCTION      0.00    75.56     0  21:25           0         104       0.298
  JMT_137              JUNCTION      0.00    44.36     0  22:18           0          73       0.143
  JMT_138              JUNCTION      0.00    49.32     0  13:28           0        73.7       2.953
  JMT_139              JUNCTION      0.00    32.92     0  20:39           0          66       0.827
  JMT_141              JUNCTION      0.00    40.10     0  13:49           0        67.1       1.585
  JMT_142              JUNCTION      0.00    45.21     0  13:32           0        67.4       0.553
  JMT_143              JUNCTION      0.00    49.10     0  13:47           0        67.7       0.399
  JMT_144              JUNCTION      0.00    51.17     0  13:38           0        67.9       0.257
  JMT_145              JUNCTION     78.35    78.35     0  14:00        40.3        79.2       0.310
  JMT_146              JUNCTION      0.00    32.65     0  12:17           0        49.7       1.144
  JMT_147              JUNCTION      0.00    29.86     0  12:17           0        48.7       0.443
  JMT_148              JUNCTION      0.00    27.85     0  12:13           0        48.3       0.577
  JMT_149              JUNCTION      0.00    23.31     0  12:10           0        47.9       0.978
  JMT_150              JUNCTION      0.00    22.15     0  20:07           0        47.4       0.514
  JMT_999              JUNCTION      0.00   288.91     2  23:02           0         717       0.459
  JMT_L_001            JUNCTION     41.08    41.08     0  12:00        6.41        6.41      -4.051
  JMT_L_003            JUNCTION      0.00   165.37     0  18:54           0        98.6      -0.073
  JMT_L_004            JUNCTION      0.00    75.71     1  05:57           0        74.5      -0.017
  JMT_L_005            JUNCTION      0.00    71.16     1  05:53           0        61.7       0.214
  JMT_L_008            JUNCTION      0.00     4.52     0  19:42           0        3.99       0.032
  JMT_L_009            JUNCTION      0.00    19.27     1  00:28           0        20.9       0.027
  JMT_L_010            JUNCTION      0.00    19.27     1  00:30           0        20.9       0.070
  JMT_L_011            JUNCTION      0.00    19.27     1  00:37           0        20.9       0.166
  JMT_L_013            JUNCTION      0.00    16.33     0  13:10           0        6.79      -1.456
  JMT_L_014            JUNCTION      0.00    15.45     0  15:23           0        6.79       0.005
  JMT_L_015            JUNCTION      0.00     4.52     0  19:47           0        3.99      -2.664
  JMT_L_999            JUNCTION     59.93    59.93     0  13:00        21.8        21.8      -0.685
  JP2_002              JUNCTION      0.00    31.20     0  13:27           0        34.6       3.075
  JP2_005              JUNCTION     23.83    24.61     0  12:00        2.79        36.1       0.824
  JP2_015              JUNCTION     50.12    55.11     0  12:00        8.75        35.9       0.000
  JP3_003              JUNCTION      0.00    17.40     0  17:51           0        33.5       0.640
  JP3_004              JUNCTION      0.00    16.63     1  00:53           0        33.3       0.114
  JP3_007              JUNCTION      0.00     7.38     1  12:44           0        21.6       0.647
  MT_032_M             JUNCTION      0.00     6.15     0  13:11           0        2.21      -0.000
  MT_033_M             JUNCTION      0.00     2.85     0  15:49           0        1.37       0.005
  P2_003_M             JUNCTION      0.00     6.26     0  13:32           0        4.61       0.017
  P2_004_M             JUNCTION      0.00     4.91     0  11:29           0       0.669       0.129
  P2_005_M             JUNCTION      0.00     2.96     1  02:57           0        3.61      -0.018
  P2_006_M             JUNCTION      0.00     2.92     0  12:31           0        2.69       0.041
  OUT                  OUTFALL       0.00   393.86     3  04:27           0         993       0.000
  BR1_003_P            STORAGE       7.04     8.68     0  12:00       0.475        2.13       0.001
  BR1_004_P            STORAGE      19.28    19.28     0  12:00        1.66        1.66       0.001
  BR1_005_P            STORAGE      10.45    10.45     0  12:00       0.705       0.705      -0.001
  BR1_007_P            STORAGE      15.71    20.65     0  12:00        1.14        2.99      -0.017
  BR1_008_P            STORAGE      23.11    23.11     0  12:00        1.83        1.83       0.001
  BR1_009_P            STORAGE       6.42     6.42     0  12:00       0.413       0.413      -0.001
  BR1_011_P            STORAGE      13.80    13.80     0  12:00         1.1         1.1       0.000
  BR1_012_P            STORAGE      16.12    16.12     0  12:00        1.19        1.19      -0.000
  BR1_013_P            STORAGE      26.46    26.46     0  13:00          12          12       0.005
  BR2_001_P            STORAGE      65.31    91.41     0  13:00        30.4        36.3       0.071
  BR2_002_P            STORAGE      25.71    25.71     0  12:00        5.08        5.08       0.000
  BR2_003_P            STORAGE      31.46    31.46     0  12:00        5.89        5.89       0.087
  BR4_001_P            STORAGE     100.55   100.55     0  13:00        44.8        56.2       0.364
  E_001_P              STORAGE     120.10   131.96     0  13:00        36.1        39.2      -0.364
  E_003_P              STORAGE      19.45    19.45     0  12:00        2.02        2.02       0.004
  E_004_P              STORAGE       6.67     6.67     0  12:00       0.429       0.429       0.015
  E_005_P              STORAGE       8.60     8.60     0  12:00       0.576       0.576      -0.001
  E_007_P              STORAGE       2.03     2.03     0  12:00       0.117       0.117       0.149
  H_001_P              STORAGE      90.67    90.67     0  13:00        31.7        31.7       0.008
  JD5_001_P            STORAGE     118.57   118.57     1  00:00         123         123       0.034
  MT_019_P             STORAGE      52.06    75.76     1  05:44        13.2        74.7       0.254
  MT_021_P             STORAGE      76.38   115.71     0  23:47        25.8        83.5       0.012
  MT_022_P             STORAGE      77.82   527.37     0  20:14        35.9        70.7      -0.701
  MT_023_P             STORAGE      84.42  9501.48     0  20:13        40.4        53.5       2.576
  MT_025_P             STORAGE      42.16    42.16     0  12:00        6.84        6.84       0.001
  MT_026_P             STORAGE      63.88    63.88     0  13:00        20.9        20.9       0.001
  MT_027_P             STORAGE      64.62    64.62     0  14:00        30.3        32.3       0.000
  MT_028_P             STORAGE     102.28   323.61     0  13:33        64.2         349       9.369
  MT_029_P             STORAGE      34.44    34.44     0  12:00        4.01        4.01       0.001
  MT_030_P             STORAGE      12.16    12.16     0  12:00        1.11        1.11       0.000
  MT_032_P             STORAGE      11.59    12.86     0  12:00       0.842        2.21       0.002
  MT_033_P             STORAGE      10.26    12.89     0  12:00       0.742        1.37       0.004
  MT_035_P             STORAGE       8.96     8.96     0  12:00       0.631       0.631      -0.000
  MT_036_P             STORAGE      45.49    59.81     0  13:00        11.8        32.7      -0.044
  MT_037_P             STORAGE      17.54    17.78     0  12:00        2.84        20.1       0.018
  P2_003_P             STORAGE       7.69    12.42     0  12:00        0.53        4.74       0.015
  P2_004_P             STORAGE       9.79     9.79     0  12:00       0.669       0.669      -0.002
  P2_005_P             STORAGE      13.46    17.88     0  12:00       0.969        3.73       0.011
  P2_006_P             STORAGE      32.44    32.44     0  12:00         2.7         2.7       0.002
  P2_007_P             STORAGE       9.18     9.18     0  12:00       0.664       0.664       0.020
  P2_008_P             STORAGE      10.02    10.02     0  12:00       0.975       0.975       0.009
  P3_001_P             STORAGE       0.00   169.15     0  17:39           0         102       0.018
  P3_002_P             STORAGE      50.65    50.65     0  12:00        11.3        11.3       0.001
  P3_003_P             STORAGE      57.79    57.79     0  13:00        22.5        22.5       0.002
  P3_004_P             STORAGE      86.76    86.76     0  13:00        34.2        34.2       0.003
  P3_005_P             STORAGE     120.26   120.26     0  14:00        61.2        61.2       0.135
  P3_006_P             STORAGE      97.09   131.00     0  16:59        55.4        88.9       2.610
  P3_010_P             STORAGE      67.34    67.34     0  14:00        31.7        31.7       0.000
  PELTIER_P            STORAGE     434.44   632.67     1  03:34         525    2.72e+03       0.154
  
  
  **********************
  Node Surcharge Summary
  **********************
  
  Surcharging occurs when water rises above the top of the highest conduit.
  ---------------------------------------------------------------------
                                               Max. Height   Min. Depth
                                   Hours       Above Crown    Below Rim
  Node                 Type      Surcharged           Feet         Feet
  ---------------------------------------------------------------------
  E_002_M2             JUNCTION       15.61          5.444       43.556
  P2_006_M             JUNCTION       34.44          1.046       47.504
  
  
  *********************
  Node Flooding Summary
  *********************
  
  No nodes were flooded.
  
  
  **********************
  Storage Volume Summary
  **********************
  
  --------------------------------------------------------------------------------------------------
                         Average     Avg  Evap Exfil       Maximum     Max    Time of Max    Maximum
                          Volume    Pcnt  Pcnt  Pcnt        Volume    Pcnt     Occurrence    Outflow
  Storage Unit          1000 ft3    Full  Loss  Loss      1000 ft3    Full    days hr:min        CFS
  --------------------------------------------------------------------------------------------------
  BR1_003_P               10.580       0     0     0        48.438       1       0  19:06       2.93
  BR1_004_P               19.227       0     0     0        95.873       1       0  17:13       3.22
  BR1_005_P                0.022       0     0     0         0.711       0       0  12:00      10.38
  BR1_007_P                8.592       0     0     0        73.372       1       0  15:07      13.21
  BR1_008_P                6.346       0     0     0        73.616       2       0  13:34       6.27
  BR1_009_P                0.410       0     0     0         9.272       1       0  12:07       4.38
  BR1_011_P                4.269       0     0     0        40.528       1       0  13:04       5.58
  BR1_012_P                3.404       0     0     0        42.605       2       0  12:43       6.70
  BR1_013_P                2.170       0     0     0        16.978       0       0  14:06      26.01
  BR2_001_P                0.546       0     0     0         2.573       0       0  13:46      89.98
  BR2_002_P              557.708       1     0     0       679.518       2       5  12:00       0.00
  BR2_003_P                0.115       0     0     0         0.648       0       0  12:06      30.94
  BR4_001_P             2272.632       1     0     0      4110.246       2       2  18:30      79.83
  E_001_P               3034.047       0     0     0      3813.236       0       1  15:38       7.38
  E_003_P                 10.894       0     0     0        78.753       2       0  15:10       4.69
  E_004_P                  0.148       0     0     0         7.679       0       0  12:08       4.28
  E_005_P                  0.899       0     0     0        18.601       1       0  12:37       3.39
  E_007_P                  3.231       0     0     0         3.706       0       1  15:42       1.89
  H_001_P               2295.528       1     0     0      2872.031       1       1  14:33       6.41
  JD5_001_P             1662.706       0     0     0      3481.484       1       1  08:16      87.71
  MT_019_P                 6.172       0     0     0        11.830       0       1  06:01      75.71
  MT_021_P              3191.158       2     0     0      4627.364       3       1  05:52      71.16
  MT_022_P               403.007       0     0     0      1251.528       1       1  00:11    9445.49
  MT_023_P              2139.526       3     0     0      3264.117       5       0  20:13     474.63
  MT_025_P                32.203       0     0     0       224.417       2       0  15:23      15.45
  MT_026_P               234.644       1     0     0       978.662       5       1  00:28      19.27
  MT_027_P              3333.738       4     0     0      4318.286       6       5  12:00       0.00
  MT_028_P             34874.731       7     0     0     37962.754       8       3  12:28      16.41
  MT_029_P                68.132       0     0     0       249.711       1       0  19:42       4.52
  MT_030_P                 3.982       0     0     0        41.101       1       0  14:10       3.44
  MT_032_P                11.216       0     0     0        46.143       1       0  13:11       6.15
  MT_033_P                11.285       0     0     0        62.051       1       0  15:25       2.85
  MT_035_P                 4.566       0     0     0        26.889       0       0  15:06       2.66
  MT_036_P                 1.299       0     0     0         6.066       0       0  13:01      59.58
  MT_037_P                50.103       0     0     0        60.664       0       0  13:12      13.88
  P2_003_P                15.270       0     0     0        34.880       1       0  13:32       6.99
  P2_004_P                 0.484       0     0     0        11.133       0       0  12:26       4.91
  P2_005_P                64.272       1     0     0       131.456       2       0  19:47       2.96
  P2_006_P                70.160       0     0     0       222.687       1       0  23:25       2.92
  P2_007_P                38.367       1     0     0        50.426       1       0  15:26       1.50
  P2_008_P                42.108       1     0     0        61.436       1       0  15:24       2.27
  P3_001_P              1024.601       1     0     0      1604.372       1       0  18:54     165.37
  P3_002_P              1209.171       2     0     0      1473.414       2       5  12:00       0.09
  P3_003_P                 0.516       0     0     0         3.437       0       0  13:02      57.71
  P3_004_P               279.754       1     0     0      1017.671       4       0  20:36      46.97
  P3_005_P              2427.193       1     0     0      3607.373       1       1  02:20      55.11
  P3_006_P              1069.890       0     0     0      1382.647       0       0  18:17     129.60
  P3_010_P              3216.677       1     0     0      4240.669       1       5  12:00       0.00
  PELTIER_P           229070.875       2     0     0    239516.280       2       3  04:27     684.08
  
  
  ***********************
  Outfall Loading Summary
  ***********************
  
  -----------------------------------------------------------
                         Flow       Avg       Max       Total
                         Freq      Flow      Flow      Volume
  Outfall Node           Pcnt       CFS       CFS    10^6 gal
  -----------------------------------------------------------
  OUT                   95.25    293.66    393.86     992.762
  -----------------------------------------------------------
  System                95.25    293.66    393.86     992.762
  
  
  ********************
  Link Flow Summary
  ********************
  
  -----------------------------------------------------------------------------
                                 Maximum  Time of Max   Maximum    Max/    Max/
                                  |Flow|   Occurrence   |Veloc|    Full    Full
  Link                 Type          CFS  days hr:min    ft/sec    Flow   Depth
  -----------------------------------------------------------------------------
  CBR1_001             CHANNEL    113.37     0  13:25      0.08    0.00    0.27
  CBR1_100             CHANNEL     28.15     0  14:38      2.48    0.00    0.04
  CBR1_101             CHANNEL    141.42     0  12:04      9.05    0.00    0.05
  CBR1_L_002           CONDUIT      5.58     0  13:02      7.63    6.46    0.93
  CBR1_L_003           CONDUIT      2.93     0  19:07      4.30    0.74    0.90
  CBR1_L_004           CONDUIT      6.70     0  12:43      8.53    9.67    1.00
  CBR1_L_005           CONDUIT      3.18     0  12:56      2.59   29.63    1.00
  CBR1_L_006           CONDUIT      2.75     0  12:34      7.80   22.72    1.00
  CBR1_L_007           CONDUIT      2.07     0  12:25      5.88   15.62    1.00
  CBR1_L_008           CONDUIT      8.45     0  15:05     10.76    9.80    1.00
  CBR1_L_009           CHANNEL     29.41     0  13:56    >50.00    0.00    0.05
  CBR1_L_010           CONDUIT      4.26     0  12:21      7.83   30.05    1.00
  CBR1_L_011           CONDUIT     26.01     0  14:00      6.28    1.60    0.45
  CBR1_L_012           CONDUIT      4.38     0  12:07      5.72    6.22    0.94
  CBR1_L_013           CONDUIT      1.41     0  11:30      4.09   15.06    1.00
  CBR1_L_014           CONDUIT      3.69     0  11:38      4.70    3.03    1.00
  CBR1_L_015           CONDUIT      2.93     0  19:06      8.31   22.08    1.00
  CBR1_L_016           CONDUIT      6.27     0  13:34      7.99   28.15    1.00
  CBR1_L_017           CONDUIT     10.38     0  12:00      2.88    0.25    0.27
  CBR1_L_097           CHANNEL      0.00     0  00:00      0.00    0.00    0.00
  CBR2_001             CHANNEL     86.09     0  13:47      0.06    0.00    0.37
  CBR2_002             CONDUIT      0.37     0  12:03      0.83    0.06    0.17
  CBR2_003             CHANNEL     30.55     0  12:08      3.66    0.00    0.02
  CBR2_004             CONDUIT      0.17     0  12:00      0.94    0.17    0.23
  CBR2_005             CHANNEL      0.00     0  00:00      0.00    0.00    0.01
  CBR2_006             CHANNEL      0.00     0  00:00      0.00    0.00    0.00
  CBR2_007             CHANNEL      0.00     0  00:00      0.00    0.00    0.00
  CBR2_008             CHANNEL     89.73     0  13:01      2.28    0.05    0.32
  CBR2_009             CHANNEL     30.77     0  12:01      1.08    0.05    0.24
  CBR4_001             CHANNEL     79.83     0  12:29      0.79    0.02    0.81
  CBR_L_096            CONDUIT     13.02     0  14:55      2.39    0.18    0.86
  CE_001               CONDUIT      7.38     1  12:44      4.94    1.35    0.80
  CE_L_001             CONDUIT      1.89     0  12:01      2.83    3.30    1.00
  CE_L_003             CONDUIT      2.62     0  11:50      3.34    9.61    1.00
  CE_L_005             CONDUIT      3.39     0  12:37      4.58   24.22    0.89
  CE_L_007             CONDUIT      1.04     0  12:01      1.92    5.77    1.00
  CE_L_009             CONDUIT      4.28     0  12:08      4.85    0.35    0.62
  CE_L_014             CONDUIT      4.69     0  15:10      5.98    0.48    1.00
  CE_L_015             CONDUIT      4.28     0  12:07      5.46   30.17    0.99
  CE_L_020             CONDUIT      4.69     0  15:10      6.10    2.81    0.95
  CH_L_001             CHANNEL     10.03     0  14:53      0.13    0.01    0.54
  CH_L_002             CONDUIT      5.34     0  14:26      4.60    1.05    0.63
  CH_L_003             CONDUIT      6.41     1  14:33      3.64    0.64    0.98
  CH_L_004             CHANNEL      0.00     0  00:00      0.00    0.00    0.00
  CH_L_005             CONDUIT      8.85     0  13:13      3.61    0.00    0.01
  CJD5_001             CONDUIT     87.71     1  08:16      2.37    0.04    0.15
  CMT1                 CHANNEL     99.04     0  20:48      0.77    0.00    0.33
  CMT_001              CHANNEL    684.08     0  00:18      1.13    0.00    0.35
  CMT_002              CHANNEL    294.17     3  01:49      1.01    0.00    0.19
  CMT_003              CHANNEL    292.77     3  01:13      0.18    0.00    0.24
  CMT_004              CONDUIT    292.77     3  01:04      7.51    0.50    0.78
  CMT_005              CHANNEL    292.78     3  00:58      1.80    0.00    0.25
  CMT_006              CHANNEL    292.79     3  00:43      1.81    0.00    0.21
  CMT_007              CHANNEL    292.80     3  00:36      1.51    0.00    0.20
  CMT_008              CHANNEL    290.78     3  00:39      0.98    0.00    0.16
  CMT_009              CHANNEL    290.79     3  00:36      1.42    0.00    0.21
  CMT_010              CHANNEL    290.79     3  00:26      0.82    0.00    0.25
  CMT_011              CHANNEL    290.81     3  00:03      0.89    0.00    0.18
  CMT_012              CHANNEL    290.87     2  23:41      1.45    0.00    0.16
  CMT_014              CHANNEL    290.91     2  23:31      4.68    0.00    0.15
  CMT_016              CHANNEL    290.90     2  23:23      2.18    0.00    0.27
  CMT_017              CHANNEL    288.89     2  23:17      0.57    0.00    0.29
  CMT_018              CONDUIT     69.70     0  18:14     12.45    1.99    1.00
  CMT_019              CHANNEL    288.91     2  23:02      1.58    0.00    0.25
  CMT_021              CHANNEL    288.91     2  22:59      0.56    0.00    0.24
  CMT_023              CONDUIT    288.91     2  22:58      3.37    0.31    0.92
  CMT_024              CHANNEL    288.92     2  22:55      2.78    0.01    0.21
  CMT_026              CHANNEL    288.93     2  22:45      1.35    0.01    0.22
  CMT_027              CONDUIT    288.93     2  22:36      4.93    0.15    0.70
  CMT_028              CHANNEL    288.93     2  22:33      2.46    0.00    0.21
  CMT_029              CHANNEL    288.62     2  21:57      2.66    0.01    0.27
  CMT_030              CHANNEL    287.75     2  21:53      2.62    0.01    0.21
  CMT_031              CHANNEL    287.74     2  21:50      1.92    0.00    0.19
  CMT_032              CHANNEL    287.75     2  21:47      2.11    0.00    0.21
  CMT_034              CHANNEL    287.75     2  21:39      2.17    0.01    0.30
  CMT_035              CONDUIT    287.75     2  21:34      6.82    0.58    0.78
  CMT_036              CHANNEL    287.75     2  21:31      2.74    0.01    0.40
  CMT_037              CHANNEL    287.76     2  21:22      2.37    0.01    0.34
  CMT_038              CHANNEL    286.79     2  21:17      1.19    0.01    0.23
  CMT_040              CHANNEL    286.81     2  21:04      2.70    0.03    0.27
  CMT_041              CONDUIT    286.80     2  21:04      6.34    0.29    0.84
  CMT_042              CHANNEL    286.80     2  21:03      3.43    0.01    0.34
  CMT_043              CHANNEL    286.80     2  20:56      1.84    0.02    0.30
  CMT_044              CHANNEL    285.19     2  20:47      0.97    0.00    0.29
  CMT_045              CHANNEL    285.21     2  20:29      1.38    0.00    0.31
  CMT_046              CHANNEL    284.63     2  20:18      0.96    0.01    0.34
  CMT_047              CHANNEL    284.69     2  19:57      1.42    0.00    0.23
  CMT_048              CHANNEL    284.73     2  19:41      1.04    0.00    0.24
  CMT_049              CHANNEL    284.75     2  19:34      4.62    0.10    0.26
  CMT_051              CHANNEL    284.81     2  19:01      0.50    0.09    0.45
  CMT_052              CONDUIT    284.96     2  18:26      4.43    0.17    1.00
  CMT_053              CHANNEL    285.03     2  18:12      2.85    0.01    0.35
  CMT_054              CHANNEL    285.15     2  17:52      1.48    0.16    0.35
  CMT_055              CHANNEL    284.10     2  17:21      0.50    0.00    0.32
  CMT_057              CHANNEL    284.27     2  16:58      1.76    0.00    0.35
  CMT_058              CHANNEL    284.36     2  16:47      1.16    0.00    0.26
  CMT_059              CHANNEL    284.52     2  16:29      1.04    0.00    0.27
  CMT_061              CHANNEL    285.54     2  15:08      1.18    0.00    0.33
  CMT_066              CHANNEL    302.45     2  08:45      1.04    0.00    0.27
  CMT_067              CHANNEL    302.80     2  08:44      1.92    0.01    0.33
  CMT_068              CHANNEL    300.71     2  07:38      0.61    0.00    0.30
  CMT_069              CHANNEL    298.34     2  06:55      0.49    0.00    0.28
  CMT_070              CHANNEL    300.26     2  05:36      0.96    0.00    0.26
  CMT_071              CHANNEL    304.71     2  03:31      3.41    0.00    0.29
  CMT_072              CHANNEL    320.54     1  23:39      0.60    0.00    0.26
  CMT_073              CHANNEL    345.00     1  20:59      2.12    0.00    0.30
  CMT_075              CHANNEL    364.51     1  19:39      1.13    0.01    0.23
  CMT_076              CONDUIT    369.31     1  19:30      3.04    0.06    0.84
  CMT_079              CHANNEL    369.51     1  19:29      3.03    1.25    1.00
  CMT_080              CONDUIT    184.82     1  19:29      2.63    0.19    0.93
  CMT_081              CHANNEL    371.93     1  19:20      2.81    0.00    0.28
  CMT_082              CHANNEL    371.40     1  19:14      3.03    0.00    0.28
  CMT_083              CHANNEL    370.37     1  19:12      1.25    0.00    0.23
  CMT_084              CHANNEL    370.27     1  19:10      2.37    0.00    0.21
  CMT_086              CHANNEL    370.61     1  19:06      2.15    0.01    0.22
  CMT_087              CHANNEL    370.83     1  18:58      1.75    0.00    0.22
  CMT_088              CHANNEL    372.03     1  18:22      0.82    0.00    0.33
  CMT_089              CHANNEL    377.01     1  16:57      1.26    0.00    0.22
  CMT_090              CHANNEL    385.47     1  14:39      2.02    0.04    0.52
  CMT_091              CHANNEL    391.45     1  13:55      2.01    0.00    0.26
  CMT_092              CHANNEL    391.55     1  13:34      2.89    0.00    0.29
  CMT_093              CHANNEL    389.05     1  13:31      0.65    0.00    0.33
  CMT_094              CHANNEL    359.05     1  14:06      2.09    0.02    0.27
  CMT_095              CHANNEL    358.18     1  13:55      1.83    0.00    0.35
  CMT_096              CONDUIT    357.77     1  13:49      4.14    0.20    0.96
  CMT_098              CHANNEL    357.61     1  13:41      2.17    0.00    0.30
  CMT_099              CHANNEL    357.41     1  13:22      1.54    0.00    0.26
  CMT_100              CHANNEL    357.46     1  13:05      1.62    0.00    0.22
  CMT_101              CHANNEL    357.68     1  12:44      1.10    0.00    0.26
  CMT_102              CHANNEL    358.74     1  12:04      1.67    0.00    0.24
  CMT_103              CHANNEL    361.82     1  11:00      1.62    0.00    0.23
  CMT_104              CHANNEL    367.64     1  09:47      2.37    0.00    0.24
  CMT_105              CHANNEL    370.45     1  09:24      0.92    0.00    0.24
  CMT_106              CHANNEL    372.04     1  09:10      0.99    0.00    0.23
  CMT_107              CHANNEL    286.13     1  09:00      1.82    0.00    0.18
  CMT_108              CHANNEL    246.55     1  09:23      1.67    0.00    0.18
  CMT_109              CHANNEL    247.50     1  08:59      1.62    0.00    0.20
  CMT_110              CHANNEL    248.54     1  08:39      1.03    0.00    0.20
  CMT_111              CHANNEL    246.83     1  08:27      0.87    0.00    0.20
  CMT_112              CHANNEL    230.76     1  08:47      1.39    0.02    0.21
  CMT_113              CHANNEL    231.73     1  08:28      1.18    0.00    0.20
  CMT_114              CHANNEL    233.14     1  08:04      1.80    0.00    0.20
  CMT_115              CHANNEL    234.10     1  07:42      1.08    0.00    0.13
  CMT_116              CHANNEL    235.72     1  07:14      1.19    0.01    0.15
  CMT_117              CHANNEL    238.08     1  06:36      1.10    0.00    0.17
  CMT_118              CHANNEL    240.35     1  05:44      1.84    0.00    0.19
  CMT_119              CHANNEL    241.83     1  05:20      1.50    0.03    0.23
  CMT_120              CHANNEL    242.48     1  05:06      1.70    0.00    0.23
  CMT_121              CHANNEL    150.93     1  07:46      1.26    0.00    0.23
  CMT_122              CHANNEL    149.71     1  07:11      0.70    0.00    0.40
  CMT_123              CONDUIT    149.09     1  06:34      1.84    0.26    0.86
  CMT_125              CHANNEL    149.15     1  06:03      2.89    0.00    0.18
  CMT_126              CHANNEL    149.58     1  05:39      0.30    0.00    0.31
  CMT_127              CHANNEL    149.99     1  05:26      3.69    0.00    0.13
  CMT_128              CHANNEL    144.33     1  05:36      2.36    0.01    0.35
  CMT_129              CHANNEL     95.73     0  20:55      1.10    0.00    0.14
  CMT_132              CONDUIT    102.95     0  20:19      1.05    0.08    1.00
  CMT_134              CHANNEL    107.65     0  19:24      1.58    0.00    0.29
  CMT_135              CHANNEL     74.66     0  21:54      1.71    0.00    0.21
  CMT_136              CHANNEL     75.08     0  21:48      0.76    0.00    0.12
  CMT_137              CHANNEL     44.17     0  22:36      1.32    0.00    0.15
  CMT_138              CHANNEL     44.36     0  22:18      1.47    0.00    0.20
  CMT_139              CHANNEL     32.66     0  21:25      1.13    0.00    0.22
  CMT_141              CHANNEL     32.92     0  20:39      0.55    0.00    0.29
[...]
  CMT_028                 2.45   0.00  0.00  0.00  0.99  0.01  0.00  0.00  0.00  0.00
  CMT_029                 1.00   0.00  0.00  0.00  1.00  0.00  0.00  0.00  0.91  0.00
  CMT_030                 1.00   0.00  0.00  0.00  0.99  0.01  0.00  0.00  0.00  0.00
  CMT_031                 1.11   0.01  0.01  0.00  0.97  0.00  0.00  0.00  0.01  0.00
  CMT_032                 1.00   0.02  0.00  0.00  0.98  0.00  0.00  0.00  0.00  0.00
  CMT_034                 1.00   0.02  0.00  0.00  0.98  0.00  0.00  0.00  0.01  0.00
  CMT_035                 4.31   0.02  0.01  0.00  0.98  0.00  0.00  0.00  0.00  0.00
  CMT_036                 2.02   0.01  0.00  0.00  0.99  0.01  0.00  0.00  0.03  0.00
  CMT_037                 1.00   0.00  0.00  0.00  1.00  0.00  0.00  0.00  0.04  0.00
  CMT_038                 1.00   0.00  0.03  0.00  0.97  0.00  0.00  0.00  0.01  0.00
  CMT_040                 1.00   0.02  0.00  0.00  0.98  0.00  0.00  0.00  0.00  0.00
  CMT_041                 7.89   0.02  0.00  0.00  0.98  0.00  0.00  0.00  0.00  0.01
  CMT_042                 1.85   0.01  0.00  0.00  0.98  0.01  0.00  0.00  0.00  0.00
  CMT_043                 1.00   0.00  0.00  0.00  1.00  0.00  0.00  0.00  0.00  0.00
  CMT_044                 1.00   0.00  0.01  0.00  0.99  0.00  0.00  0.00  0.05  0.00
  CMT_045                 1.00   0.00  0.00  0.00  1.00  0.00  0.00  0.00  0.00  0.00
  CMT_046                 1.00   0.00  0.02  0.00  0.98  0.00  0.00  0.00  0.00  0.00
  CMT_047                 1.00   0.02  0.02  0.00  0.96  0.00  0.00  0.00  0.00  0.00
  CMT_048                 1.00   0.04  0.00  0.00  0.96  0.00  0.00  0.00  0.00  0.00
  CMT_049                 1.00   0.03  0.00  0.00  0.97  0.00  0.00  0.00  0.00  0.00
  CMT_051                 1.00   0.02  0.00  0.00  0.98  0.00  0.00  0.00  0.00  0.00
  CMT_052                 6.25   0.02  0.00  0.00  0.98  0.01  0.00  0.00  0.00  0.02
  CMT_053                 1.00   0.01  0.00  0.00  0.99  0.00  0.00  0.00  0.00  0.00
  CMT_054                 1.00   0.00  0.00  0.00  1.00  0.00  0.00  0.00  0.00  0.00
  CMT_055                 1.00   0.00  0.03  0.00  0.97  0.00  0.00  0.00  0.00  0.00
  CMT_057                 6.32   0.03  0.00  0.00  0.97  0.00  0.00  0.00  0.00  0.00
  CMT_058                 1.00   0.03  0.00  0.00  0.97  0.00  0.00  0.00  0.00  0.00
  CMT_059                 1.00   0.03  0.00  0.00  0.97  0.00  0.00  0.00  0.00  0.00
  CMT_061                 1.00   0.00  0.03  0.00  0.97  0.00  0.00  0.00  0.00  0.00
  CMT_066                 1.00   0.00  0.03  0.00  0.97  0.00  0.00  0.00  0.02  0.00
  CMT_067                 1.00   0.01  0.02  0.00  0.97  0.00  0.00  0.00  0.00  0.00
  CMT_068                 1.00   0.00  0.01  0.00  0.99  0.00  0.00  0.00  0.04  0.00
  CMT_069                 1.00   0.00  0.03  0.00  0.97  0.00  0.00  0.00  0.00  0.00
  CMT_070                 1.00   0.03  0.01  0.00  0.96  0.00  0.00  0.00  0.00  0.00
  CMT_071                 2.02   0.04  0.00  0.00  0.96  0.01  0.00  0.00  0.00  0.00
  CMT_072                 1.00   0.04  0.00  0.00  0.96  0.00  0.00  0.00  0.00  0.00
  CMT_073                 1.00   0.03  0.00  0.00  0.96  0.00  0.00  0.00  0.01  0.00
  CMT_075                 1.00   0.03  0.00  0.00  0.97  0.00  0.00  0.00  0.00  0.00
  CMT_076                23.57   0.02  0.01  0.00  0.97  0.00  0.00  0.00  0.00  0.00
  CMT_079                 1.06   0.01  0.01  0.00  0.98  0.00  0.00  0.00  0.00  0.00
  CMT_080                 5.11   0.01  0.00  0.00  0.99  0.00  0.00  0.00  0.00  0.02
  CMT_081                 1.00   0.00  0.00  0.00  0.98  0.02  0.00  0.00  0.03  0.00
  CMT_082                 1.00   0.00  0.00  0.00  1.00  0.00  0.00  0.00  0.04  0.00
  CMT_083                 1.00   0.00  0.00  0.00  1.00  0.00  0.00  0.00  0.08  0.00
  CMT_084                 1.00   0.00  0.03  0.00  0.97  0.00  0.00  0.00  0.00  0.00
  CMT_086                 1.00   0.03  0.00  0.00  0.96  0.00  0.00  0.00  0.00  0.00
  CMT_087                 1.00   0.04  0.00  0.00  0.96  0.00  0.00  0.00  0.00  0.00
  CMT_088                 1.00   0.04  0.00  0.00  0.96  0.00  0.00  0.00  0.00  0.00
  CMT_089                 1.00   0.04  0.00  0.00  0.96  0.00  0.00  0.00  0.00  0.00
  CMT_090                 1.00   0.03  0.01  0.00  0.96  0.00  0.00  0.00  0.00  0.00
  CMT_091                 1.00   0.02  0.00  0.00  0.97  0.01  0.00  0.00  0.00  0.00
  CMT_092                 1.00   0.00  0.02  0.00  0.98  0.00  0.00  0.00  0.00  0.00
  CMT_093                 1.00   0.00  0.00  0.00  1.00  0.00  0.00  0.00  0.07  0.00
  CMT_094                 1.00   0.00  0.00  0.00  1.00  0.00  0.00  0.00  0.00  0.00
  CMT_095                 1.00   0.01  0.00  0.00  0.99  0.00  0.00  0.00  0.02  0.00
  CMT_096                 5.18   0.01  0.03  0.00  0.96  0.00  0.00  0.00  0.00  0.00
  CMT_098                 1.00   0.04  0.01  0.00  0.95  0.00  0.00  0.00  0.01  0.00
  CMT_099                 1.00   0.05  0.00  0.00  0.95  0.00  0.00  0.00  0.00  0.00
  CMT_100                 1.00   0.05  0.00  0.00  0.95  0.00  0.00  0.00  0.00  0.00
  CMT_101                 1.00   0.04  0.00  0.00  0.95  0.00  0.00  0.00  0.00  0.00
  CMT_102                 1.00   0.04  0.00  0.00  0.96  0.00  0.00  0.00  0.00  0.00
  CMT_103                 1.00   0.03  0.01  0.00  0.96  0.00  0.00  0.00  0.00  0.00
  CMT_104                 1.00   0.02  0.00  0.00  0.97  0.00  0.00  0.00  0.00  0.00
  CMT_105                 1.00   0.01  0.00  0.00  0.99  0.00  0.00  0.00  0.00  0.00
  CMT_106                 1.00   0.00  0.00  0.00  1.00  0.00  0.00  0.00  0.01  0.00
  CMT_107                 1.00   0.00  0.00  0.00  1.00  0.00  0.00  0.00  0.04  0.00
  CMT_108                 1.00   0.00  0.00  0.00  1.00  0.00  0.00  0.00  0.02  0.00
  CMT_109                 1.00   0.00  0.00  0.00  1.00  0.00  0.00  0.00  0.04  0.00
  CMT_110                 1.19   0.00  0.00  0.00  1.00  0.00  0.00  0.00  0.06  0.00
  CMT_111                 1.00   0.00  0.00  0.00  1.00  0.00  0.00  0.00  0.04  0.00
  CMT_112                 1.10   0.00  0.00  0.00  1.00  0.00  0.00  0.00  0.00  0.00
  CMT_113                 1.00   0.01  0.02  0.00  0.97  0.00  0.00  0.00  0.00  0.00
  CMT_114                 1.00   0.03  0.00  0.00  0.97  0.00  0.00  0.00  0.00  0.00
  CMT_115                 1.00   0.03  0.01  0.00  0.96  0.00  0.00  0.00  0.00  0.00
  CMT_116                 1.00   0.04  0.00  0.00  0.96  0.00  0.00  0.00  0.00  0.00
  CMT_117                 1.00   0.04  0.00  0.00  0.96  0.00  0.00  0.00  0.00  0.00
  CMT_118                 1.00   0.04  0.00  0.00  0.96  0.00  0.00  0.00  0.00  0.00
  CMT_119                 1.00   0.04  0.00  0.00  0.96  0.00  0.00  0.00  0.00  0.00
  CMT_120                 1.00   0.03  0.00  0.00  0.97  0.00  0.00  0.00  0.00  0.00
  CMT_121                 1.00   0.03  0.02  0.00  0.95  0.00  0.00  0.00  0.00  0.00
  CMT_122                 1.00   0.04  0.01  0.00  0.95  0.00  0.00  0.00  0.00  0.00
  CMT_123                 2.46   0.04  0.00  0.00  0.96  0.00  0.00  0.00  0.00  0.00
  CMT_125                 1.12   0.03  0.00  0.00  0.96  0.01  0.00  0.00  0.03  0.00
  CMT_126                 1.00   0.00  0.03  0.00  0.97  0.00  0.00  0.00  0.00  0.00
  CMT_127                 1.01   0.00  0.00  0.00  1.00  0.00  0.00  0.00  0.00  0.00
  CMT_128                 1.00   0.00  0.00  0.00  1.00  0.00  0.00  0.00  0.00  0.00
  CMT_129                 1.00   0.01  0.03  0.00  0.96  0.00  0.00  0.00  0.00  0.00
  CMT_132                 4.61   0.01  0.00  0.00  0.99  0.00  0.00  0.00  0.00  0.03
  CMT_134                 1.00   0.00  0.00  0.00  0.98  0.02  0.00  0.00  0.02  0.00
  CMT_135                 1.00   0.00  0.00  0.00  0.99  0.01  0.00  0.00  0.01  0.00
  CMT_136                 1.00   0.00  0.00  0.00  1.00  0.00  0.00  0.00  0.02  0.00
  CMT_137                 1.00   0.00  0.00  0.00  0.98  0.02  0.00  0.00  0.00  0.00
  CMT_138                 1.00   0.02  0.02  0.00  0.97  0.00  0.00  0.00  0.00  0.00
  CMT_139                 1.00   0.03  0.00  0.00  0.97  0.00  0.00  0.00  0.00  0.00
  CMT_141                 1.00   0.03  0.01  0.00  0.96  0.00  0.00  0.00  0.00  0.00
  CMT_142                 3.16   0.02  0.00  0.00  0.98  0.00  0.00  0.00  0.00  0.00
  CMT_143                 3.12   0.02  0.00  0.00  0.98  0.00  0.00  0.00  0.01  0.00
  CMT_144                 1.00   0.01  0.00  0.00  0.97  0.01  0.00  0.00  0.00  0.00
  CMT_145                 1.00   0.00  0.01  0.00  0.99  0.00  0.00  0.00  0.00  0.00
  CMT_146                 1.00   0.00  0.00  0.00  0.99  0.01  0.00  0.00  0.02  0.00
  CMT_147                 1.00   0.01  0.02  0.00  0.97  0.00  0.00  0.00  0.00  0.00
  CMT_148                 1.00   0.03  0.00  0.00  0.97  0.00  0.00  0.00  0.00  0.00
  CMT_149                 1.00   0.03  0.00  0.00  0.97  0.00  0.00  0.00  0.00  0.00
  CMT_150                 1.00   0.03  0.01  0.00  0.96  0.00  0.00  0.00  0.00  0.00
  CMT_152                26.88   1.00  0.00  0.00  0.00  0.00  0.00  0.00  0.00  0.00
  CMT_153                 3.65   0.11  0.00  0.00  0.00  0.00  0.89  0.00  0.00  0.00
  CMT_154                33.35   1.00  0.00  0.00  0.00  0.00  0.00  0.00  0.00  0.00
  CMT_155                31.47   1.00  0.00  0.00  0.00  0.00  0.00  0.00  0.00  0.00
  CMT_156                 3.17   1.00  0.00  0.00  0.00  0.00  0.00  0.00  0.00  0.00
  CMT_158                 3.67   0.70  0.30  0.00  0.00  0.00  0.00  0.00  0.00  0.00
  CMT_162                20.54   1.00  0.00  0.00  0.00  0.00  0.00  0.00  0.00  0.00
  CMT_164                10.69   1.00  0.00  0.00  0.00  0.00  0.00  0.00  0.00  0.00
  CMT_165                 2.04   1.00  0.00  0.00  0.00  0.00  0.00  0.00  0.00  0.00
  CMT_166                10.75   0.89  0.00  0.00  0.11  0.00  0.00  0.00  0.00  0.00
  CMT_167                 7.03   1.00  0.00  0.00  0.00  0.00  0.00  0.00  0.00  0.00
  CMT_170                 5.11   0.01  0.00  0.00  0.99  0.00  0.00  0.00  0.00  0.02
  CMT_171                 5.62   1.00  0.00  0.00  0.00  0.00  0.00  0.00  0.00  0.00
  CMT_999                 1.00   0.02  0.02  0.00  0.97  0.00  0.00  0.00  0.00  0.00
  CMT_L_001               1.00   0.00  0.00  0.00  1.00  0.00  0.00  0.00  0.93  0.00
  CMT_L_002               1.72   0.00  0.00  0.00  0.00  0.00  0.00  1.00  0.00  0.00
  CMT_L_003               5.72   0.00  0.05  0.00  0.33  0.01  0.61  0.00  0.00  0.03
  CMT_L_004               1.00   0.00  0.00  0.00  0.96  0.04  0.00  0.00  0.91  0.00
  CMT_L_005               5.02   0.00  0.00  0.00  0.32  0.00  0.00  0.68  0.00  0.05
  CMT_L_006               2.04   0.00  0.00  0.00  0.00  0.00  0.00  1.00  0.00  0.00
  CMT_L_008               1.70   0.00  0.00  0.00  1.00  0.00  0.00  0.00  0.00  0.00
  CMT_L_009               1.00   0.00  0.00  0.00  0.99  0.01  0.00  0.00  0.93  0.00
  CMT_L_010               1.00   0.00  0.02  0.00  0.98  0.00  0.00  0.00  0.94  0.00
  CMT_L_011               1.37   0.00  0.00  0.00  0.00  0.00  0.00  1.00  0.00  0.00
  CMT_L_012               1.00   0.00  0.00  0.00  1.00  0.00  0.00  0.00  0.90  0.00
  CMT_L_013               1.00   0.00  0.00  0.00  0.99  0.01  0.00  0.00  0.97  0.00
  CMT_L_014               2.16   0.03  0.00  0.00  0.84  0.13  0.00  0.00  0.00  0.00
  CMT_L_015               1.00   0.03  0.00  0.00  0.96  0.01  0.00  0.00  0.91  0.00
  CMT_L_016               1.00   0.00  0.01  0.00  0.98  0.00  0.00  0.00  0.04  0.00
  CMT_L_017               1.00   0.00  0.00  0.00  0.89  0.10  0.00  0.00  0.95  0.00
  CMT_L_018               1.41   0.00  0.00  0.00  0.00  0.00  0.00  1.00  0.00  0.00
  CMT_L_019               1.00   0.03  0.00  0.00  0.97  0.00  0.00  0.00  0.00  0.00
  CMT_L_022               2.06   0.00  0.00  0.00  0.00  0.00  0.00  1.00  0.00  0.00
  CMT_L_024               2.69   0.04  0.00  0.00  0.96  0.00  0.00  0.00  0.00  0.00
  CMT_L_025               1.00   0.00  0.00  0.00  0.97  0.03  0.00  0.00  0.90  0.00
  CMT_L_026               1.00   0.00  0.00  0.00  0.99  0.00  0.01  0.00  0.00  0.00
  CMT_L_027               1.00   0.01  0.00  0.00  0.00  0.00  0.00  0.99  0.00  0.00
  CMT_L_028               1.00   0.10  0.00  0.00  0.90  0.00  0.00  0.00  0.00  0.00
  CMT_L_029               1.00   0.00  0.11  0.00  0.89  0.00  0.00  0.00  0.87  0.00
  CMT_L_030               1.00   0.01  0.03  0.00  0.96  0.00  0.00  0.00  0.92  0.00
  CMT_L_090               5.99   0.00  0.03  0.00  0.97  0.00  0.00  0.00  0.00  0.00
  CMT_L_098               1.00   0.00  0.00  0.00  0.00  0.00  0.00  1.00  0.00  0.00
  CMT_L_100               9.63   0.05  0.08  0.00  0.00  0.00  0.86  0.00  0.00  0.00
  CMT_L_103               4.81   0.52  0.00  0.00  0.00  0.00  0.00  0.48  0.00  0.00
  CMT_L_999               1.00   1.00  0.00  0.00  0.00  0.00  0.00  0.00  0.00  0.00
  CP2_001                 1.51   0.02  0.00  0.00  0.97  0.00  0.01  0.00  0.00  0.00
  CP2_002                 1.00   0.01  0.00  0.00  0.99  0.01  0.00  0.00  0.01  0.00
  CP2_003                 1.00   0.00  0.01  0.00  0.99  0.00  0.00  0.00  0.99  0.00
  CP2_004                 1.00   0.00  0.01  0.00  0.99  0.00  0.00  0.00  0.73  0.00
  CP2_005                 1.00   0.00  0.02  0.00  0.98  0.00  0.00  0.00  0.00  0.00
  CP2_006                 1.00   0.02  0.01  0.00  0.98  0.00  0.00  0.00  0.00  0.00
  CP2_011                11.53   0.06  0.00  0.00  0.26  0.00  0.67  0.00  0.00  0.00
  CP2_L_001               1.00   0.05  0.00  0.00  0.00  0.00  0.00  0.95  0.00  0.89
  CP2_L_002               1.00   0.05  0.00  0.00  0.00  0.00  0.00  0.95  0.00  0.70
  CP2_L_003               1.00   0.03  0.00  0.00  0.00  0.00  0.00  0.97  0.00  0.88
  CP2_L_004               1.00   0.00  0.01  0.00  0.96  0.00  0.03  0.00  0.00  0.00
  CP2_L_005               1.00   0.00  0.00  0.00  0.51  0.00  0.00  0.49  0.00  0.00
  CP2_L_006               1.00   0.03  0.00  0.00  0.46  0.00  0.00  0.51  0.00  0.00
  CP2_L_008               1.00   0.02  0.01  0.00  0.97  0.00  0.00  0.00  0.00  0.00
  CP2_L_009               7.70   0.00  0.03  0.00  0.97  0.00  0.00  0.00  0.00  0.01
  CP2_L_010               2.50   0.00  0.00  0.00  0.47  0.00  0.00  0.53  0.00  0.02
  CP3_001                 1.00   0.00  0.00  0.00  0.98  0.01  0.00  0.00  0.00  0.06
  CP3_002                10.56   0.00  0.00  0.00  0.83  0.17  0.00  0.00  1.00  0.00
  CP3_003                 3.77   0.04  0.00  0.00  0.00  0.00  0.00  0.96  0.00  0.00
  CP3_004                20.74   0.07  0.01  0.00  0.91  0.00  0.00  0.00  0.88  0.00
  CP3_019                 1.00   1.00  0.00  0.00  0.00  0.00  0.00  0.00  0.00  0.00
  CP3_020                 1.00   0.04  0.05  0.00  0.91  0.00  0.00  0.00  0.88  0.00
  CP3_L_001               1.00   0.00  0.03  0.00  0.97  0.00  0.00  0.00  0.92  0.00
  CP3_L_002               1.00   0.00  0.00  0.00  0.00  0.00  0.00  1.00  0.00  0.00
  CP3_L_020               7.01   1.00  0.00  0.00  0.00  0.00  0.00  0.00  0.00  0.00
  
  
  *************************
  Conduit Surcharge Summary
  *************************
  
  ----------------------------------------------------------------------------
                                                           Hours        Hours 
                         --------- Hours Full --------   Above Full   Capacity
  Conduit                Both Ends  Upstream  Dnstream   Normal Flow   Limited
  ----------------------------------------------------------------------------
  CBR1_L_002                  0.01      7.18      0.01     15.00         0.01
  CBR1_L_003                  0.01     16.43      0.01      0.01         0.01
  CBR1_L_004                  0.79      8.02      0.79     14.61         0.79
  CBR1_L_005                 21.44     23.40     21.44     42.26        21.44
  CBR1_L_006                  7.00     15.19      7.00     25.54         7.00
  CBR1_L_007                 19.63     27.55     19.63     40.38        19.63
  CBR1_L_008                  9.11     15.36      9.11     19.54         9.11
  CBR1_L_010                  0.97     10.87      0.97     23.78         0.97
  CBR1_L_011                  0.01      0.01      0.01      8.47         0.01
  CBR1_L_012                  0.01      1.69      0.01      5.70         0.01
  CBR1_L_013                  1.54      5.38      1.54     18.52         1.54
  CBR1_L_014                 15.36     16.00     15.36      8.11        10.77
  CBR1_L_015                 28.91     31.28     28.91     42.19        28.91
  CBR1_L_016                  1.47     11.81      1.47     25.38         1.47
  CBR4_001                    0.01      0.01    116.33      0.01         0.01
  CE_001                      0.01     86.59      0.01    115.22         0.01
  CE_L_001                  116.19    116.19    116.19      1.27         0.01
  CE_L_003                    4.75      5.27      4.75     15.42         4.75
  CE_L_005                    0.01      4.75      0.01     18.09         0.01
  CE_L_007                  120.74    120.78    120.74      3.05         3.85
  CE_L_009                    0.01      0.01     86.59      0.01         0.01
  CE_L_014                   15.40     15.40     15.61      0.01         0.01
  CE_L_015                    0.01      2.48      0.01     17.40         0.01
  CE_L_020                    0.01     15.61      0.01     15.68         0.01
  CH_L_001                    0.01      0.01     33.53      0.01         0.01
  CH_L_002                    0.01    106.11      0.01     14.22         0.01
  CH_L_003                    0.01      0.01    106.11      0.01         0.01
  CMT_018                   120.37    120.37    121.22    119.84         0.01
  CMT_052                    22.26     22.26     52.44      0.01         0.01
  CMT_079                    36.46     36.46     53.19     20.68         0.01
  CMT_132                    57.56     57.56     72.24      0.01         0.01
  CMT_142                   118.29    118.29    118.29      0.01        16.43
  CMT_L_002                   0.01     86.41      0.01    119.78         0.01
  CMT_L_003                   4.35      4.35    118.99      0.01         0.01
  CMT_L_005                  25.76     27.50     25.76     36.58        25.76
  CMT_L_006                   0.27     31.98      0.27     45.20         0.27
  CMT_L_008                  23.82     24.02     23.82     28.90        23.82
  CMT_L_011                  22.91     39.94     22.91    122.28        22.91
  CMT_L_014                   0.01     13.56      0.01     20.53         0.01
  CMT_L_018                   0.01     27.65      0.01     49.40         0.01
  CMT_L_022                   0.01     11.94      0.01     39.44         0.01
  CMT_L_026                  23.03     24.57     23.03     37.58        23.03
  CMT_L_098                   0.01     13.61      0.01     18.83         0.01
  CMT_L_100                   0.01      0.01      0.32      0.02         0.01
  CP2_001                    32.98    118.30     32.98    120.76        32.98
  CP2_L_003                   0.01      7.12      0.01      3.13         0.01
  CP2_L_004                  30.14     30.14     45.11      2.04         0.01
  CP2_L_005                  32.51     38.54     32.51     66.08        32.51
  CP2_L_006                  20.01     48.96     20.35     80.15        18.80
  CP2_L_008                  41.99     41.99     67.84      7.63         0.01
  CP2_L_009                  48.96     48.96    120.90      0.01         0.01
  CP2_L_010                  34.44     37.90     34.44     59.25        34.44
  CP3_001                   122.01    124.39    122.01    122.01       122.01
  CP3_002                     0.01      0.01     86.41      0.01         0.01
  CP3_003                     0.01      0.01      0.01    117.42         0.01
  CP3_L_002                   0.01     22.69      0.01     45.39         0.01
  

  Analysis begun on:  Fri Nov 29 08:52:27 2019
  Analysis ended on:  Fri Nov 29 08:53:00 2019
  Total elapsed time: 00:00:33