
  EPA STORM WATER MANAGEMENT MODEL - VERSION 5.1 (Build 5.1.013)
  --------------------------------------------------------------

  13-Mile Run Continuous Simulation Model 
  
  
  ERROR 110: ground elevation is below water table for Subcatchment SUB511000.
  
  ERROR 110: ground elevation is below water table for Subcatchment SUB530340.

  Analysis begun on:  Sat Nov 30 08:10:18 2019
  Analysis ended on:  Sat Nov 30 08:10:18 2019
  Total elapsed time: < 1 sec