
  EPA STORM WATER MANAGEMENT MODEL - VERSION 5.1 (Build 5.1.013)
  --------------------------------------------------------------

  
  ERROR 209: undefined object MYSUBCATCHMENT at line 68 of [GROUNDWATER] section:
  MYSUBCATCHMENT	MONROVIA	LONGTERMDETENTION	5.000000	0.100000	1.000000	0.100000	1.000000	0.000000	1.000000	1.000000	0.000000	1.000000	0.250000

  
  ERROR 209: undefined object MYSUBCATCHMENT at line 71 of [GWF] section:
  MYSUBCATCHMENT  DEEP	Ksat*Hgw/Hsw

  
  ERROR 211: invalid number  at line 5619 of [XSECT] section:
  CDT-1741	CIRCULAR	0.000000	0.000000	0.000000	0.000000	1	0

  
  ERROR 211: invalid number  at line 5629 of [XSECT] section:
  CDT-1763	CIRCULAR	0.000000	0.000000	0.000000	0.000000	1	0

  
  ERROR 211: invalid number  at line 5717 of [XSECT] section:
  CDT-1953	CIRCULAR	0.000000	0.000000	0.000000	0.000000	1	0

  
  ERROR 211: invalid number  at line 5734 of [XSECT] section:
  CDT-1987	CIRCULAR	0.000000	0.000000	0.000000	0.000000	1	0

  
  ERROR 211: invalid number  at line 5795 of [XSECT] section:
  CDT-2127	CIRCULAR	0.000000	0.000000	0.000000	0.000000	1	0

  
  ERROR 211: invalid number  at line 5796 of [XSECT] section:
  CDT-2129	CIRCULAR	0.000000	0.000000	0.000000	0.000000	1	0

  
  ERROR 211: invalid number  at line 5799 of [XSECT] section:
  CDT-2135	CIRCULAR	0.000000	0.000000	0.000000	0.000000	1	0

  
  ERROR 211: invalid number  at line 5800 of [XSECT] section:
  CDT-2137	CIRCULAR	0.000000	0.000000	0.000000	0.000000	1	0

  
  ERROR 211: invalid number  at line 5859 of [XSECT] section:
  CDT-2263	CIRCULAR	0.000000	0.000000	0.000000	0.000000	1	0

  
  ERROR 211: invalid number  at line 5866 of [XSECT] section:
  CDT-2277	CIRCULAR	0.000000	0.000000	0.000000	0.000000	1	0

  
  ERROR 211: invalid number  at line 5867 of [XSECT] section:
  CDT-2279	CIRCULAR	0.000000	0.000000	0.000000	0.000000	1	0

  
  ERROR 211: invalid number  at line 5874 of [XSECT] section:
  CDT-2293	CIRCULAR	0.000000	0.000000	0.000000	0.000000	1	0

  
  ERROR 211: invalid number  at line 5875 of [XSECT] section:
  CDT-2295	CIRCULAR	0.000000	0.000000	0.000000	0.000000	1	0

  
  ERROR 211: invalid number  at line 5891 of [XSECT] section:
  CDT-2329	CIRCULAR	0.000000	0.000000	0.000000	0.000000	1	0

  
  ERROR 211: invalid number  at line 5944 of [XSECT] section:
  CDT-2445	CIRCULAR	0.000000	0.000000	0.000000	0.000000	1	0

  
  ERROR 211: invalid number  at line 5947 of [XSECT] section:
  CDT-2451	CIRCULAR	0.000000	0.000000	0.000000	0.000000	1	0

  
  ERROR 209: undefined object LONGTERMDETENTION at line 7426 of [INFLOW] section:
  LONGTERMDETENTION	FLOW	""	FLOW  1.0	1.000000	0.000000	HOURLY

  
  ERROR 209: undefined object LONGTERMDETENTION at line 7430 of [DWF] section:
  LONGTERMDETENTION	FLOW	1.000000	"HOURLY"	"WEEKEND"	"MONTH"	""

  
  ERROR 209: undefined object LONGTERMDETENTION at line 7433 of [RDII] section:
  LONGTERMDETENTION	MYRTK	100.000000


  Analysis begun on:  Sat Nov 30 08:10:18 2019
  Analysis ended on:  Sat Nov 30 08:10:18 2019
  Total elapsed time: < 1 sec