
  EPA STORM WATER MANAGEMENT MODEL - VERSION 5.1 (Build 5.1.013)
  --------------------------------------------------------------

  
  ERROR 209: undefined object FM5 at line 1394 of [RDII] section:
  107X18           FM5              2.341313  

  
  ERROR 209: undefined object FM3 at line 1395 of [RDII] section:
  108X18           FM3              9.691867  

  
  ERROR 209: undefined object FM11 at line 1396 of [RDII] section:
  109Y18           FM11             3.885701  

  
  ERROR 209: undefined object FM11 at line 1397 of [RDII] section:
  110Y18           FM11             1.841013  

  
  ERROR 209: undefined object FM3 at line 1398 of [RDII] section:
  111X18           FM3              0.544136  

  
  ERROR 209: undefined object FM3 at line 1399 of [RDII] section:
  115X18           FM3              0.227279  

  
  ERROR 209: undefined object FM11 at line 1400 of [RDII] section:
  117Y18           FM11             3.391968  

  
  ERROR 209: undefined object FM7 at line 1401 of [RDII] section:
  203Z17           FM7              2.560597  

  
  ERROR 209: undefined object FM12 at line 1402 of [RDII] section:
  203Z18           FM12             19.110684 

  
  ERROR 209: undefined object FM7 at line 1403 of [RDII] section:
  204Z17           FM7              5.074820  

  
  ERROR 209: undefined object FM11 at line 1404 of [RDII] section:
  208Y18           FM11             5.713738  

  
  ERROR 209: undefined object FM7 at line 1405 of [RDII] section:
  208Z17           FM7              14.665995 

  
  ERROR 209: undefined object FM11 at line 1406 of [RDII] section:
  210Y18           FM11             0.657450  

  
  ERROR 209: undefined object FM7 at line 1407 of [RDII] section:
  211Z17           FM7              10.803561 

  
  ERROR 209: undefined object FM9 at line 1408 of [RDII] section:
  217X19           FM9              9.807648  

  
  ERROR 209: undefined object FM11 at line 1409 of [RDII] section:
  217Y18           FM11             2.182509  

  
  ERROR 209: undefined object FM6 at line 1410 of [RDII] section:
  303Y17           FM6              1.636705  

  
  ERROR 209: undefined object FM2 at line 1411 of [RDII] section:
  304X17           FM2              1.729900  

  
  ERROR 209: undefined object FM6 at line 1412 of [RDII] section:
  304Y17           FM6              6.754437  

  
  ERROR 209: undefined object FM8 at line 1413 of [RDII] section:
  305Z17           FM8              1.468635  

  
  ERROR 209: undefined object FM8 at line 1414 of [RDII] section:
  306Z17           FM8              5.283790  

  
  ERROR 209: undefined object FM12 at line 1415 of [RDII] section:
  307Z18           FM12             3.726392  

  
  ERROR 209: undefined object FM14 at line 1416 of [RDII] section:
  308X18           FM14             8.876915  

  
  ERROR 209: undefined object FM6 at line 1417 of [RDII] section:
  308Y17           FM6              1.823423  

  
  ERROR 209: undefined object FM10 at line 1418 of [RDII] section:
  308Y18           FM10             5.416935  

  
  ERROR 209: undefined object FM2 at line 1419 of [RDII] section:
  309X17           FM2              9.615570  

  
  ERROR 209: undefined object FM8 at line 1420 of [RDII] section:
  309Z17           FM8              4.205929  

  
  ERROR 209: undefined object FM14 at line 1421 of [RDII] section:
  312X18           FM14             0.239404  

  
  ERROR 209: undefined object FM2 at line 1422 of [RDII] section:
  320X17           FM2              2.766923  

  
  ERROR 209: undefined object FM5 at line 1423 of [RDII] section:
  325X17           FM5              2.621166  

  
  ERROR 209: undefined object FM5 at line 1424 of [RDII] section:
  333X17           FM5              2.313484  

  
  ERROR 209: undefined object FM2 at line 1425 of [RDII] section:
  401W18           FM2              0.889010  

  
  ERROR 209: undefined object FM3 at line 1426 of [RDII] section:
  402X18           FM3              1.127703  

  
  ERROR 209: undefined object FM3 at line 1427 of [RDII] section:
  403X18           FM3              0.856672  

  
  ERROR 209: undefined object FM5 at line 1428 of [RDII] section:
  404X18           FM5              1.018659  

  
  ERROR 209: undefined object FM12 at line 1429 of [RDII] section:
  405Y18           FM12             3.399077  

  
  ERROR 209: undefined object FM13 at line 1430 of [RDII] section:
  408X19           FM13             5.459296  

  
  ERROR 209: undefined object FM11 at line 1431 of [RDII] section:
  409Y18           FM11             6.431849  

  
  ERROR 209: undefined object FM14 at line 1432 of [RDII] section:
  410X18           FM14             2.553581  

  
  ERROR 209: undefined object FM13 at line 1433 of [RDII] section:
  413X19           FM13             7.283224  

  
  ERROR 209: undefined object FM13 at line 1434 of [RDII] section:
  414X19           FM13             7.031612  

  
  ERROR 209: undefined object FM9 at line 1435 of [RDII] section:
  502X19           FM9              2.203770  

  
  ERROR 209: undefined object FM11 at line 1436 of [RDII] section:
  503Y18           FM11             1.102049  

  
  ERROR 209: undefined object FM11 at line 1437 of [RDII] section:
  505Y18           FM11             9.688186  

  
  ERROR 209: undefined object FM2 at line 1438 of [RDII] section:
  506W18           FM2              2.544465  

  
  ERROR 209: undefined object FM11 at line 1439 of [RDII] section:
  506Y18           FM11             0.913988  

  
  ERROR 209: undefined object FM11 at line 1440 of [RDII] section:
  507Y18           FM11             3.380880  

  
  ERROR 209: undefined object FM2 at line 1441 of [RDII] section:
  509W18           FM2              0.264102  

  
  ERROR 209: undefined object FM9 at line 1442 of [RDII] section:
  510X19           FM9              5.853454  

  
  ERROR 209: undefined object FM14 at line 1443 of [RDII] section:
  517X18           FM14             4.458294  

  
  ERROR 209: undefined object FM14 at line 1444 of [RDII] section:
  518X18           FM14             4.467427  

  
  ERROR 209: undefined object FM14 at line 1445 of [RDII] section:
  520X18           FM14             1.148465  

  
  ERROR 209: undefined object FM13 at line 1446 of [RDII] section:
  520X19           FM13             1.534214  

  
  ERROR 209: undefined object FM14 at line 1447 of [RDII] section:
  601X18           FM14             2.404000  

  
  ERROR 209: undefined object FM14 at line 1448 of [RDII] section:
  602X18           FM14             9.530000  

  
  ERROR 209: undefined object FM9 at line 1449 of [RDII] section:
  603X19           FM9              2.705899  

  
  ERROR 209: undefined object FM2 at line 1450 of [RDII] section:
  604W18           FM2              7.791595  

  
  ERROR 209: undefined object FM1 at line 1451 of [RDII] section:
  604W18D1         FM1              25.323078 

  
  ERROR 209: undefined object FM10 at line 1452 of [RDII] section:
  605Y18           FM10             4.201687  

  
  ERROR 209: undefined object FM10 at line 1453 of [RDII] section:
  607Y18           FM10             0.692892  

  
  ERROR 209: undefined object FM13 at line 1454 of [RDII] section:
  608X18           FM13             2.977871  

  
  ERROR 209: undefined object FM6 at line 1455 of [RDII] section:
  608Y17           FM6              8.361621  

  
  ERROR 209: undefined object FM5 at line 1456 of [RDII] section:
  611X17           FM5              0.614363  

  
  ERROR 209: undefined object FM5 at line 1457 of [RDII] section:
  613X17           FM5              4.309808  

  
  ERROR 209: undefined object FM6 at line 1458 of [RDII] section:
  613Y17           FM6              19.372115 

  
  ERROR 209: undefined object FM14 at line 1459 of [RDII] section:
  615X18           FM14             9.975797  

  
  ERROR 209: undefined object FM5 at line 1460 of [RDII] section:
  618X17           FM5              0.848186  

  
  ERROR 209: undefined object FM5 at line 1461 of [RDII] section:
  622X17           FM5              6.767456  

  
  ERROR 209: undefined object FM2 at line 1462 of [RDII] section:
  703W18           FM2              4.180202  

  
  ERROR 209: undefined object FM14 at line 1463 of [RDII] section:
  705X18           FM14             1.178938  

  
  ERROR 209: undefined object FM3 at line 1464 of [RDII] section:
  706W18           FM3              1.221370  

  
  ERROR 209: undefined object FM14 at line 1465 of [RDII] section:
  707X18           FM14             8.758653  

  
  ERROR 209: undefined object FM14 at line 1466 of [RDII] section:
  709X18           FM14             1.829776  

  
  ERROR 209: undefined object FM2 at line 1467 of [RDII] section:
  713W18           FM2              8.514418  

  
  ERROR 209: undefined object FM7 at line 1468 of [RDII] section:
  805Y17           FM7              2.945746  

  
  ERROR 209: undefined object FM7 at line 1469 of [RDII] section:
  806Y17           FM7              1.407049  

  
  ERROR 209: undefined object FM7 at line 1470 of [RDII] section:
  807Y17           FM7              1.339527  

  
  ERROR 209: undefined object FM11 at line 1471 of [RDII] section:
  810X18           FM11             16.076492 

  
  ERROR 209: undefined object FM5 at line 1472 of [RDII] section:
  901X17           FM5              21.000603 

  
  ERROR 209: undefined object FM2 at line 1473 of [RDII] section:
  903W17           FM2              10.656286 

  
  ERROR 209: undefined object FM2 at line 1474 of [RDII] section:
  904W17           FM2              14.222702 

  
  ERROR 209: undefined object FM10 at line 1475 of [RDII] section:
  904X18           FM10             1.702973  

  
  ERROR 209: undefined object FM5 at line 1476 of [RDII] section:
  905X17           FM5              1.007886  

  
  ERROR 209: undefined object FM10 at line 1477 of [RDII] section:
  905X18           FM10             0.614146  

  
  ERROR 209: undefined object FM5 at line 1478 of [RDII] section:
  907X17           FM5              15.401906 

  
  ERROR 209: undefined object FM5 at line 1479 of [RDII] section:
  908X17           FM5              1.125771  

  
  ERROR 209: undefined object FM8 at line 1480 of [RDII] section:
  908Y17           FM8              9.760752  

  
  ERROR 209: undefined object FM5 at line 1481 of [RDII] section:
  909X17           FM5              23.996899 

  
  ERROR 209: undefined object FM12 at line 1482 of [RDII] section:
  909Y18           FM12             2.778702  

  
  ERROR 209: undefined object FM6 at line 1483 of [RDII] section:
  912Y17           FM6              2.365985  

  
  ERROR 209: undefined object FM13 at line 1484 of [RDII] section:
  914X18           FM13             3.135582  


  Analysis begun on:  Fri Nov 29 08:56:21 2019
  Analysis ended on:  Fri Nov 29 08:56:21 2019
  Total elapsed time: < 1 sec