
  EPA STORM WATER MANAGEMENT MODEL - VERSION 5.1 (Build 5.1.013)
  --------------------------------------------------------------

  WARNING 04: minimum elevation drop used for Conduit BALDWIN-004
  WARNING 03: negative offset ignored for Link BALDWIN-013
  WARNING 04: minimum elevation drop used for Conduit BALDWIN_OF-003
  WARNING 04: minimum elevation drop used for Conduit BALDWIN_OF-008
  WARNING 04: minimum elevation drop used for Conduit BALDWIN_OF-014
  WARNING 04: minimum elevation drop used for Conduit BALDWIN_OF-019
  WARNING 04: minimum elevation drop used for Conduit CENTERVILLE-009
  WARNING 04: minimum elevation drop used for Conduit CENTERVILLE-017
  WARNING 04: minimum elevation drop used for Conduit CLEAR-018
  WARNING 03: negative offset ignored for Link CROSSWAYS-003
  WARNING 04: minimum elevation drop used for Conduit CROSSWAYS-003
  WARNING 04: minimum elevation drop used for Conduit CWC_PELTIER-007
  WARNING 04: minimum elevation drop used for Conduit GWATCH-002
  WARNING 03: negative offset ignored for Link GWATCH-010
  WARNING 03: negative offset ignored for Link GWATCH-014
  WARNING 03: negative offset ignored for Link GWATCH-018
  WARNING 04: minimum elevation drop used for Conduit GWATCH-018
  WARNING 03: negative offset ignored for Link GWATCH-026
  WARNING 04: minimum elevation drop used for Conduit L_PELTIER_002
  WARNING 03: negative offset ignored for Link L_URC_MT_007
  WARNING 04: minimum elevation drop used for Conduit L_URC_MT_007
  WARNING 03: negative offset ignored for Link RICE_LAKE-003
  WARNING 03: negative offset ignored for Link RICE_LAKE-017
  WARNING 04: minimum elevation drop used for Conduit RICE_LAKE-017
  WARNING 04: minimum elevation drop used for Conduit RICE_LAKE-018
  WARNING 04: minimum elevation drop used for Conduit RICE_LAKE-019
  WARNING 03: negative offset ignored for Link RICE_LAKE-033
  WARNING 04: minimum elevation drop used for Conduit RONDEAU-005
  WARNING 03: negative offset ignored for Link RONDEAU-007
  WARNING 04: minimum elevation drop used for Conduit RONDEAU-007
  WARNING 03: negative offset ignored for Link RONDEAU-008
  WARNING 04: minimum elevation drop used for Conduit RONDEAU-008
  WARNING 04: minimum elevation drop used for Conduit RONDEAU-009
  WARNING 03: negative offset ignored for Link RONDEAU-010
  WARNING 04: minimum elevation drop used for Conduit RONDEAU-010
  WARNING 03: negative offset ignored for Link RONDEAU-011
  WARNING 03: negative offset ignored for Link RONDEAU-012
  WARNING 04: minimum elevation drop used for Conduit RONDEAU-012
  WARNING 03: negative offset ignored for Link RONDEAU_LAKE_OUTFALL
  WARNING 04: minimum elevation drop used for Conduit URC_MT_OF-002
  WARNING 02: maximum depth increased for Node RICE_LAKE_032
  
  *********************************************************
  NOTE: The summary statistics displayed in this report are
  based on results found at every computational time step,  
  not just on results from each reporting time step.
  *********************************************************
  
  ****************
  Analysis Options
  ****************
  Flow Units ............... CFS
  Process Models:
    Rainfall/Runoff ........ YES
    RDII ................... NO
    Snowmelt ............... NO
    Groundwater ............ NO
    Flow Routing ........... YES
    Ponding Allowed ........ YES
    Water Quality .......... NO
  Infiltration Method ...... CURVE_NUMBER
  Flow Routing Method ...... DYNWAVE
  Surcharge Method ......... EXTRAN
  Starting Date ............ 09/13/2010 00:00:00
  Ending Date .............. 09/23/2010 00:00:00
  Antecedent Dry Days ...... 5.0
  Report Time Step ......... 00:10:00
  Wet Time Step ............ 00:05:00
  Dry Time Step ............ 00:00:00
  Routing Time Step ........ 5.00 sec
  Variable Time Step ....... YES
  Maximum Trials ........... 8
  Number of Threads ........ 1
  Head Tolerance ........... 0.005000 ft
  
  
  **************************        Volume         Depth
  Runoff Quantity Continuity     acre-feet        inches
  **************************     ---------       -------
  Initial Snow Cover .......         0.000         0.000
  Total Precipitation ......         0.000         0.000
  Evaporation Loss .........         0.000         0.000
  Infiltration Loss ........         0.000         0.000
  Surface Runoff ...........         0.000         0.000
  Snow Removed .............         0.000         0.000
  Final Snow Cover .........         0.000         0.000
  Final Storage ............         0.000         0.000
  Continuity Error (%) .....         0.000
  
  
  **************************        Volume        Volume
  Flow Routing Continuity        acre-feet      10^6 gal
  **************************     ---------     ---------
  Dry Weather Inflow .......         0.000         0.000
  Wet Weather Inflow .......         0.000         0.000
  Groundwater Inflow .......         0.000         0.000
  RDII Inflow ..............         0.000         0.000
  External Inflow ..........         0.000         0.000
  External Outflow .........         0.000         0.000
  Flooding Loss ............         0.000         0.000
  Evaporation Loss .........         0.000         0.000
  Exfiltration Loss ........         0.000         0.000
  Initial Stored Volume ....        14.086         4.590
  Final Stored Volume ......        14.086         4.590
  Continuity Error (%) .....         0.000
  
  
  ***************************
  Time-Step Critical Elements
  ***************************
  None
  
  
  ********************************
  Highest Flow Instability Indexes
  ********************************
  All links are stable.
  
  
  ***************************
  Subcatchment Runoff Summary
  ***************************
  
  ------------------------------------------------------------------------------------------------------------------------------
                            Total      Total      Total      Total     Imperv       Perv      Total       Total     Peak  Runoff
                           Precip      Runon       Evap      Infil     Runoff     Runoff     Runoff      Runoff   Runoff   Coeff
  Subcatchment                 in         in         in         in         in         in         in    10^6 gal      CFS
  ------------------------------------------------------------------------------------------------------------------------------
  CWC_RC_PELTIER_001         0.00       0.00       0.00       0.00       0.00       0.00       0.00        0.00     0.00   0.000
  CWC_RC_PELTIER_002         0.00       0.00       0.00       0.00       0.00       0.00       0.00        0.00     0.00   0.000
  CWC_RC_PELTIER_003         0.00       0.00       0.00       0.00       0.00       0.00       0.00        0.00     0.00   0.000
  CWC_RC_PELTIER_004         0.00       0.00       0.00       0.00       0.00       0.00       0.00        0.00     0.00   0.000
  CWC_RC_PELTIER_005         0.00       0.00       0.00       0.00       0.00       0.00       0.00        0.00     0.00   0.000
  CWC_RC_PELTIER_006         0.00       0.00       0.00       0.00       0.00       0.00       0.00        0.00     0.00   0.000
  CWC_RC_PELTIER_008         0.00       0.00       0.00       0.00       0.00       0.00       0.00        0.00     0.00   0.000
  CWC_RC_PELTIER_009         0.00       0.00       0.00       0.00       0.00       0.00       0.00        0.00     0.00   0.000
  LRC_RC_MT_049              0.00       0.00       0.00       0.00       0.00       0.00       0.00        0.00     0.00   0.000
  LRC_RC_MT_050              0.00       0.00       0.00       0.00       0.00       0.00       0.00        0.00     0.00   0.000
  LRC_RC_MT_051              0.00       0.00       0.00       0.00       0.00       0.00       0.00        0.00     0.00   0.000
  LRC_RC_MT_052              0.00       0.00       0.00       0.00       0.00       0.00       0.00        0.00     0.00   0.000
  LRC_RC_MT_053              0.00       0.00       0.00       0.00       0.00       0.00       0.00        0.00     0.00   0.000
  LRC_RC_MT_054              0.00       0.00       0.00       0.00       0.00       0.00       0.00        0.00     0.00   0.000
  L_PELTIER_07               0.00       0.00       0.00       0.00       0.00       0.00       0.00        0.00     0.00   0.000
  MRC_RC_BALDWIN_001         0.00       0.00       0.00       0.00       0.00       0.00       0.00        0.00     0.00   0.000
  MRC_RC_BALDWIN_002         0.00       0.00       0.00       0.00       0.00       0.00       0.00        0.00     0.00   0.000
  MRC_RC_BALDWIN_003         0.00       0.00       0.00       0.00       0.00       0.00       0.00        0.00     0.00   0.000
  MRC_RC_BALDWIN_004         0.00       0.00       0.00       0.00       0.00       0.00       0.00        0.00     0.00   0.000
  MRC_RC_BALDWIN_005         0.00       0.00       0.00       0.00       0.00       0.00       0.00        0.00     0.00   0.000
  MRC_RC_BALDWIN_006         0.00       0.00       0.00       0.00       0.00       0.00       0.00        0.00     0.00   0.000
  MRC_RC_BALDWIN_007         0.00       0.00       0.00       0.00       0.00       0.00       0.00        0.00     0.00   0.000
  MRC_RC_BALDWIN_008         0.00       0.00       0.00       0.00       0.00       0.00       0.00        0.00     0.00   0.000
  MRC_RC_BALDWIN_009         0.00       0.00       0.00       0.00       0.00       0.00       0.00        0.00     0.00   0.000
  MRC_RC_BALDWIN_010         0.00       0.00       0.00       0.00       0.00       0.00       0.00        0.00     0.00   0.000
  MRC_RC_CENTRVILL_001       0.00       0.00       0.00       0.00       0.00       0.00       0.00        0.00     0.00   0.000
  MRC_RC_CENTRVILL_002       0.00       0.00       0.00       0.00       0.00       0.00       0.00        0.00     0.00   0.000
  MRC_RC_CENTRVILL_003       0.00       0.00       0.00       0.00       0.00       0.00       0.00        0.00     0.00   0.000
  MRC_RC_CENTRVILL_004       0.00       0.00       0.00       0.00       0.00       0.00       0.00        0.00     0.00   0.000
  MRC_RC_CENTRVILL_005       0.00       0.00       0.00       0.00       0.00       0.00       0.00        0.00     0.00   0.000
  MRC_RC_CENTRVILL_006       0.00       0.00       0.00       0.00       0.00       0.00       0.00        0.00     0.00   0.000
  MRC_RC_CENTRVILL_007       0.00       0.00       0.00       0.00       0.00       0.00       0.00        0.00     0.00   0.000
  MRC_RC_CENTRVILL_008       0.00       0.00       0.00       0.00       0.00       0.00       0.00        0.00     0.00   0.000
  MRC_RC_CENTRVILL_009       0.00       0.00       0.00       0.00       0.00       0.00       0.00        0.00     0.00   0.000
  MRC_RC_CENTRVILL_010       0.00       0.00       0.00       0.00       0.00       0.00       0.00        0.00     0.00   0.000
  MRC_RC_CENTRVILL_011       0.00       0.00       0.00       0.00       0.00       0.00       0.00        0.00     0.00   0.000
  MRC_RC_CENTRVILL_012       0.00       0.00       0.00       0.00       0.00       0.00       0.00        0.00     0.00   0.000
  MRC_RC_CENTRVILL_013       0.00       0.00       0.00       0.00       0.00       0.00       0.00        0.00     0.00   0.000
  MRC_RC_CENTRVILL_014       0.00       0.00       0.00       0.00       0.00       0.00       0.00        0.00     0.00   0.000
  MRC_RC_CENTRVILL_015       0.00       0.00       0.00       0.00       0.00       0.00       0.00        0.00     0.00   0.000
  MRC_RC_CENTRVILL_017       0.00       0.00       0.00       0.00       0.00       0.00       0.00        0.00     0.00   0.000
  MRC_RC_GWATCH_001          0.00       0.00       0.00       0.00       0.00       0.00       0.00        0.00     0.00   0.000
  MRC_RC_GWATCH_002          0.00       0.00       0.00       0.00       0.00       0.00       0.00        0.00     0.00   0.000
  MRC_RC_GWATCH_003          0.00       0.00       0.00       0.00       0.00       0.00       0.00        0.00     0.00   0.000
  MRC_RC_GWATCH_004          0.00       0.00       0.00       0.00       0.00       0.00       0.00        0.00     0.00   0.000
  MRC_RC_GWATCH_005          0.00       0.00       0.00       0.00       0.00       0.00       0.00        0.00     0.00   0.000
  MRC_RC_GWATCH_006          0.00       0.00       0.00       0.00       0.00       0.00       0.00        0.00     0.00   0.000
  MRC_RC_GWATCH_007          0.00       0.00       0.00       0.00       0.00       0.00       0.00        0.00     0.00   0.000
  MRC_RC_GWATCH_008          0.00       0.00       0.00       0.00       0.00       0.00       0.00        0.00     0.00   0.000
  MRC_RC_GWATCH_009          0.00       0.00       0.00       0.00       0.00       0.00       0.00        0.00     0.00   0.000
  MRC_RC_GWATCH_010          0.00       0.00       0.00       0.00       0.00       0.00       0.00        0.00     0.00   0.000
  MRC_RC_GWATCH_011          0.00       0.00       0.00       0.00       0.00       0.00       0.00        0.00     0.00   0.000
  MRC_RC_GWATCH_012          0.00       0.00       0.00       0.00       0.00       0.00       0.00        0.00     0.00   0.000
  MRC_RC_GWATCH_013          0.00       0.00       0.00       0.00       0.00       0.00       0.00        0.00     0.00   0.000
  MRC_RC_GWATCH_014          0.00       0.00       0.00       0.00       0.00       0.00       0.00        0.00     0.00   0.000
  MRC_RC_GWATCH_015          0.00       0.00       0.00       0.00       0.00       0.00       0.00        0.00     0.00   0.000
  MRC_RC_GWATCH_016          0.00       0.00       0.00       0.00       0.00       0.00       0.00        0.00     0.00   0.000
  MRC_RC_GWATCH_017          0.00       0.00       0.00       0.00       0.00       0.00       0.00        0.00     0.00   0.000
  MRC_RC_GWATCH_018          0.00       0.00       0.00       0.00       0.00       0.00       0.00        0.00     0.00   0.000
  MRC_RC_GWATCH_019          0.00       0.00       0.00       0.00       0.00       0.00       0.00        0.00     0.00   0.000
  MRC_RC_GWATCH_020          0.00       0.00       0.00       0.00       0.00       0.00       0.00        0.00     0.00   0.000
  MRC_RC_GWATCH_021          0.00       0.00       0.00       0.00       0.00       0.00       0.00        0.00     0.00   0.000
  MRC_RC_GWATCH_022          0.00       0.00       0.00       0.00       0.00       0.00       0.00        0.00     0.00   0.000
  MRC_RC_GWATCH_023          0.00       0.00       0.00       0.00       0.00       0.00       0.00        0.00     0.00   0.000
  MRC_RC_GWATCH_024          0.00       0.00       0.00       0.00       0.00       0.00       0.00        0.00     0.00   0.000
  MRC_RC_GWATCH_025          0.00       0.00       0.00       0.00       0.00       0.00       0.00        0.00     0.00   0.000
  MRC_RC_GWATCH_026          0.00       0.00       0.00       0.00       0.00       0.00       0.00        0.00     0.00   0.000
  MRC_RC_GWATCH_027          0.00       0.00       0.00       0.00       0.00       0.00       0.00        0.00     0.00   0.000
  MRC_RC_GWATCH_028          0.00       0.00       0.00       0.00       0.00       0.00       0.00        0.00     0.00   0.000
  MRC_RC_GWATCH_029          0.00       0.00       0.00       0.00       0.00       0.00       0.00        0.00     0.00   0.000
  MRC_RC_GWATCH_030          0.00       0.00       0.00       0.00       0.00       0.00       0.00        0.00     0.00   0.000
  MRC_RC_GWATCH_031          0.00       0.00       0.00       0.00       0.00       0.00       0.00        0.00     0.00   0.000
  MRC_RC_GWATCH_032          0.00       0.00       0.00       0.00       0.00       0.00       0.00        0.00     0.00   0.000
  MRC_RC_GWATCH_033          0.00       0.00       0.00       0.00       0.00       0.00       0.00        0.00     0.00   0.000
  MRC_RC_MARSHAN_001         0.00       0.00       0.00       0.00       0.00       0.00       0.00        0.00     0.00   0.000
  MRC_RC_PELTIER_001         0.00       0.00       0.00       0.00       0.00       0.00       0.00        0.00     0.00   0.000
  MRC_RC_PELTIER_002         0.00       0.00       0.00       0.00       0.00       0.00       0.00        0.00     0.00   0.000
  MRC_RC_PELTIER_003         0.00       0.00       0.00       0.00       0.00       0.00       0.00        0.00     0.00   0.000
  MRC_RC_PELTIER_004         0.00       0.00       0.00       0.00       0.00       0.00       0.00        0.00     0.00   0.000
  MRC_RC_PELTIER_006         0.00       0.00       0.00       0.00       0.00       0.00       0.00        0.00     0.00   0.000
  MRC_RC_PELTIER_009         0.00       0.00       0.00       0.00       0.00       0.00       0.00        0.00     0.00   0.000
  MRC_RC_RICE_001            0.00       0.00       0.00       0.00       0.00       0.00       0.00        0.00     0.00   0.000
  MRC_RC_RICE_002            0.00       0.00       0.00       0.00       0.00       0.00       0.00        0.00     0.00   0.000
  MRC_RC_RICE_003            0.00       0.00       0.00       0.00       0.00       0.00       0.00        0.00     0.00   0.000
  MRC_RC_RICE_004            0.00       0.00       0.00       0.00       0.00       0.00       0.00        0.00     0.00   0.000
  MRC_RC_RICE_005            0.00       0.00       0.00       0.00       0.00       0.00       0.00        0.00     0.00   0.000
  MRC_RC_RICE_006            0.00       0.00       0.00       0.00       0.00       0.00       0.00        0.00     0.00   0.000
  MRC_RC_RICE_007            0.00       0.00       0.00       0.00       0.00       0.00       0.00        0.00     0.00   0.000
  MRC_RC_RICE_008            0.00       0.00       0.00       0.00       0.00       0.00       0.00        0.00     0.00   0.000
  MRC_RC_RICE_009            0.00       0.00       0.00       0.00       0.00       0.00       0.00        0.00     0.00   0.000
  MRC_RC_RICE_LAKE_001       0.00       0.00       0.00       0.00       0.00       0.00       0.00        0.00     0.00   0.000
  MRC_RC_RICE_LAKE_002       0.00       0.00       0.00       0.00       0.00       0.00       0.00        0.00     0.00   0.000
  MRC_RC_RICE_LAKE_003       0.00       0.00       0.00       0.00       0.00       0.00       0.00        0.00     0.00   0.000
  MRC_RC_RICE_LAKE_004       0.00       0.00       0.00       0.00       0.00       0.00       0.00        0.00     0.00   0.000
  MRC_RC_RICE_LAKE_005       0.00       0.00       0.00       0.00       0.00       0.00       0.00        0.00     0.00   0.000
  MRC_RC_RICE_LAKE_006       0.00       0.00       0.00       0.00       0.00       0.00       0.00        0.00     0.00   0.000
  MRC_RC_RICE_LAKE_007       0.00       0.00       0.00       0.00       0.00       0.00       0.00        0.00     0.00   0.000
  MRC_RC_RICE_LAKE_008       0.00       0.00       0.00       0.00       0.00       0.00       0.00        0.00     0.00   0.000
  MRC_RC_RICE_LAKE_009       0.00       0.00       0.00       0.00       0.00       0.00       0.00        0.00     0.00   0.000
  MRC_RC_RICE_LAKE_010       0.00       0.00       0.00       0.00       0.00       0.00       0.00        0.00     0.00   0.000
  MRC_RC_RICE_LAKE_011       0.00       0.00       0.00       0.00       0.00       0.00       0.00        0.00     0.00   0.000
  MRC_RC_RICE_LAKE_012       0.00       0.00       0.00       0.00       0.00       0.00       0.00        0.00     0.00   0.000
  MRC_RC_RICE_LAKE_013       0.00       0.00       0.00       0.00       0.00       0.00       0.00        0.00     0.00   0.000
  MRC_RC_RICE_LAKE_014       0.00       0.00       0.00       0.00       0.00       0.00       0.00        0.00     0.00   0.000
  MRC_RC_RICE_LAKE_015       0.00       0.00       0.00       0.00       0.00       0.00       0.00        0.00     0.00   0.000
  MRC_RC_RICE_LAKE_016       0.00       0.00       0.00       0.00       0.00       0.00       0.00        0.00     0.00   0.000
  MRC_RC_RICE_LAKE_017       0.00       0.00       0.00       0.00       0.00       0.00       0.00        0.00     0.00   0.000
  MRC_RC_RICE_LAKE_018       0.00       0.00       0.00       0.00       0.00       0.00       0.00        0.00     0.00   0.000
  MRC_RC_RICE_LAKE_019       0.00       0.00       0.00       0.00       0.00       0.00       0.00        0.00     0.00   0.000
  MRC_RC_RICE_LAKE_020       0.00       0.00       0.00       0.00       0.00       0.00       0.00        0.00     0.00   0.000
  MRC_RC_RICE_LAKE_021       0.00       0.00       0.00       0.00       0.00       0.00       0.00        0.00     0.00   0.000
  MRC_RC_RICE_LAKE_022       0.00       0.00       0.00       0.00       0.00       0.00       0.00        0.00     0.00   0.000
  MRC_RC_RICE_LAKE_023       0.00       0.00       0.00       0.00       0.00       0.00       0.00        0.00     0.00   0.000
  MRC_RC_RICE_LAKE_024       0.00       0.00       0.00       0.00       0.00       0.00       0.00        0.00     0.00   0.000
  MRC_RC_RICE_LAKE_025       0.00       0.00       0.00       0.00       0.00       0.00       0.00        0.00     0.00   0.000
  MRC_RC_RICE_LAKE_026       0.00       0.00       0.00       0.00       0.00       0.00       0.00        0.00     0.00   0.000
  URC_MT_008                 0.00       0.00       0.00       0.00       0.00       0.00       0.00        0.00     0.00   0.000
  URC_RC_10A                 0.00       0.00       0.00       0.00       0.00       0.00       0.00        0.00     0.00   0.000
  URC_RC_CLEAR_001           0.00       0.00       0.00       0.00       0.00       0.00       0.00        0.00     0.00   0.000
  URC_RC_CLEAR_002           0.00       0.00       0.00       0.00       0.00       0.00       0.00        0.00     0.00   0.000
  URC_RC_CLEAR_003           0.00       0.00       0.00       0.00       0.00       0.00       0.00        0.00     0.00   0.000
  URC_RC_CLEAR_004           0.00       0.00       0.00       0.00       0.00       0.00       0.00        0.00     0.00   0.000
  URC_RC_CLEAR_005           0.00       0.00       0.00       0.00       0.00       0.00       0.00        0.00     0.00   0.000
  URC_RC_CLEAR_006           0.00       0.00       0.00       0.00       0.00       0.00       0.00        0.00     0.00   0.000
  URC_RC_CLEAR_007           0.00       0.00       0.00       0.00       0.00       0.00       0.00        0.00     0.00   0.000
  URC_RC_CLEAR_008           0.00       0.00       0.00       0.00       0.00       0.00       0.00        0.00     0.00   0.000
  URC_RC_CLEAR_009           0.00       0.00       0.00       0.00       0.00       0.00       0.00        0.00     0.00   0.000
  URC_RC_CLEAR_009A          0.00       0.00       0.00       0.00       0.00       0.00       0.00        0.00     0.00   0.000
  URC_RC_CLEAR_010           0.00       0.00       0.00       0.00       0.00       0.00       0.00        0.00     0.00   0.000
  URC_RC_CLEAR_011           0.00       0.00       0.00       0.00       0.00       0.00       0.00        0.00     0.00   0.000
  URC_RC_CLEAR_012           0.00       0.00       0.00       0.00       0.00       0.00       0.00        0.00     0.00   0.000
  URC_RC_CLEAR_013           0.00       0.00       0.00       0.00       0.00       0.00       0.00        0.00     0.00   0.000
  URC_RC_CLEAR_014           0.00       0.00       0.00       0.00       0.00       0.00       0.00        0.00     0.00   0.000
  URC_RC_CLEAR_015           0.00       0.00       0.00       0.00       0.00       0.00       0.00        0.00     0.00   0.000
  URC_RC_CLEAR_016           0.00       0.00       0.00       0.00       0.00       0.00       0.00        0.00     0.00   0.000
  URC_RC_CLEAR_017           0.00       0.00       0.00       0.00       0.00       0.00       0.00        0.00     0.00   0.000
  URC_RC_CLEAR_018           0.00       0.00       0.00       0.00       0.00       0.00       0.00        0.00     0.00   0.000
  URC_RC_CLEAR_019           0.00       0.00       0.00       0.00       0.00       0.00       0.00        0.00     0.00   0.000
  URC_RC_CLEAR_020           0.00       0.00       0.00       0.00       0.00       0.00       0.00        0.00     0.00   0.000
  URC_RC_CLEAR_021           0.00       0.00       0.00       0.00       0.00       0.00       0.00        0.00     0.00   0.000
  URC_RC_CLEAR_022           0.00       0.00       0.00       0.00       0.00       0.00       0.00        0.00     0.00   0.000
  URC_RC_CLEAR_12A           0.00       0.00       0.00       0.00       0.00       0.00       0.00        0.00     0.00   0.000
  URC_RC_CROSSWAYS_001       0.00       0.00       0.00       0.00       0.00       0.00       0.00        0.00     0.00   0.000
  URC_RC_CROSSWAYS_002       0.00       0.00       0.00       0.00       0.00       0.00       0.00        0.00     0.00   0.000
  URC_RC_CROSSWAYS_003       0.00       0.00       0.00       0.00       0.00       0.00       0.00        0.00     0.00   0.000
  URC_RC_CROSSWAYS_004       0.00       0.00       0.00       0.00       0.00       0.00       0.00        0.00     0.00   0.000
  URC_RC_CROSSWAYS_005       0.00       0.00       0.00       0.00       0.00       0.00       0.00        0.00     0.00   0.000
  URC_RC_CROSSWAYS_006       0.00       0.00       0.00       0.00       0.00       0.00       0.00        0.00     0.00   0.000
  URC_RC_HOWARD_001          0.00       0.00       0.00       0.00       0.00       0.00       0.00        0.00     0.00   0.000
  URC_RC_HOWARD_002          0.00       0.00       0.00       0.00       0.00       0.00       0.00        0.00     0.00   0.000
  URC_RC_HOWARD_003          0.00       0.00       0.00       0.00       0.00       0.00       0.00        0.00     0.00   0.000
  URC_RC_HOWARD_004          0.00       0.00       0.00       0.00       0.00       0.00       0.00        0.00     0.00   0.000
  URC_RC_HOWARD_005          0.00       0.00       0.00       0.00       0.00       0.00       0.00        0.00     0.00   0.000
  URC_RC_HOWARD_006          0.00       0.00       0.00       0.00       0.00       0.00       0.00        0.00     0.00   0.000
  URC_RC_HOWARD_007          0.00       0.00       0.00       0.00       0.00       0.00       0.00        0.00     0.00   0.000
  URC_RC_HOWARD_008          0.00       0.00       0.00       0.00       0.00       0.00       0.00        0.00     0.00   0.000
  URC_RC_HOWARD_009          0.00       0.00       0.00       0.00       0.00       0.00       0.00        0.00     0.00   0.000
  URC_RC_HOWARD_010          0.00       0.00       0.00       0.00       0.00       0.00       0.00        0.00     0.00   0.000
  URC_RC_MT_001              0.00       0.00       0.00       0.00       0.00       0.00       0.00        0.00     0.00   0.000
  URC_RC_MT_002              0.00       0.00       0.00       0.00       0.00       0.00       0.00        0.00     0.00   0.000
  URC_RC_MT_003              0.00       0.00       0.00       0.00       0.00       0.00       0.00        0.00     0.00   0.000
  URC_RC_MT_004              0.00       0.00       0.00       0.00       0.00       0.00       0.00        0.00     0.00   0.000
  URC_RC_MT_005              0.00       0.00       0.00       0.00       0.00       0.00       0.00        0.00     0.00   0.000
  URC_RC_MT_006              0.00       0.00       0.00       0.00       0.00       0.00       0.00        0.00     0.00   0.000
  URC_RC_MT_007              0.00       0.00       0.00       0.00       0.00       0.00       0.00        0.00     0.00   0.000
  URC_RC_MT_009              0.00       0.00       0.00       0.00       0.00       0.00       0.00        0.00     0.00   0.000
  URC_RC_MUD_001             0.00       0.00       0.00       0.00       0.00       0.00       0.00        0.00     0.00   0.000
  URC_RC_MUD_002             0.00       0.00       0.00       0.00       0.00       0.00       0.00        0.00     0.00   0.000
  URC_RC_MUD_003             0.00       0.00       0.00       0.00       0.00       0.00       0.00        0.00     0.00   0.000
  URC_RC_MUD_004             0.00       0.00       0.00       0.00       0.00       0.00       0.00        0.00     0.00   0.000
  URC_RC_MUD_005             0.00       0.00       0.00       0.00       0.00       0.00       0.00        0.00     0.00   0.000
  URC_RC_MUD_006             0.00       0.00       0.00       0.00       0.00       0.00       0.00        0.00     0.00   0.000
  URC_RC_RONDEAU_001         0.00       0.00       0.00       0.00       0.00       0.00       0.00        0.00     0.00   0.000
  URC_RC_RONDEAU_002         0.00       0.00       0.00       0.00       0.00       0.00       0.00        0.00     0.00   0.000
  URC_RC_RONDEAU_003         0.00       0.00       0.00       0.00       0.00       0.00       0.00        0.00     0.00   0.000
  URC_RC_RONDEAU_004         0.00       0.00       0.00       0.00       0.00       0.00       0.00        0.00     0.00   0.000
  URC_RC_RONDEAU_005         0.00       0.00       0.00       0.00       0.00       0.00       0.00        0.00     0.00   0.000
  URC_RC_RONDEAU_006         0.00       0.00       0.00       0.00       0.00       0.00       0.00        0.00     0.00   0.000
  URC_RC_RONDEAU_007         0.00       0.00       0.00       0.00       0.00       0.00       0.00        0.00     0.00   0.000
  URC_RC_RONDEAU_008         0.00       0.00       0.00       0.00       0.00       0.00       0.00        0.00     0.00   0.000
  URC_RC_RONDEAU_009         0.00       0.00       0.00       0.00       0.00       0.00       0.00        0.00     0.00   0.000
  URC_RC_RONDEAU_010         0.00       0.00       0.00       0.00       0.00       0.00       0.00        0.00     0.00   0.000
  URC_RC_RONDEAU_011         0.00       0.00       0.00       0.00       0.00       0.00       0.00        0.00     0.00   0.000
  URC_RC_RONDEAU_012         0.00       0.00       0.00       0.00       0.00       0.00       0.00        0.00     0.00   0.000
  URC_RC_RONDEAU_013         0.00       0.00       0.00       0.00       0.00       0.00       0.00        0.00     0.00   0.000
  URC_RC_RONDEAU_014         0.00       0.00       0.00       0.00       0.00       0.00       0.00        0.00     0.00   0.000
  
  
  ******************
  Node Depth Summary
  ******************
  
  ---------------------------------------------------------------------------------
                                 Average  Maximum  Maximum  Time of Max    Reported
                                   Depth    Depth      HGL   Occurrence   Max Depth
  Node                 Type         Feet     Feet     Feet  days hr:min        Feet
  ---------------------------------------------------------------------------------
  BALDWIN_LAKE         JUNCTION  -nan(ind)     0.00   874.87     0  00:00        0.00
  CENTERVILLE_LAKE     JUNCTION  -nan(ind)     0.00   877.00     0  00:00        0.00
  CLEAR_LAKE           JUNCTION  -nan(ind)     0.00   888.00     0  00:00        0.00
  CROSSWAYS_LAKE       JUNCTION  -nan(ind)     0.00   886.00     0  00:00        0.00
  GEORGE_WATCH_LAK     JUNCTION  -nan(ind)     0.00   874.87     0  00:00        0.00
  HOWARD_LAKE          JUNCTION  -nan(ind)     0.00   887.00     0  00:00        0.00
  J_UPPER_RICE_CR      JUNCTION  -nan(ind)     0.00   880.00     0  00:00        0.00
  MARSHAN_LAKE         JUNCTION  -nan(ind)     0.00   874.87     0  00:00        0.00
  MUD_LAKE             JUNCTION  -nan(ind)     0.00   887.50     0  00:00        0.00
  PELTIER_LAKE         JUNCTION  -nan(ind)     0.00   874.00     0  00:00        0.00
  RICE_LAKE            JUNCTION  -nan(ind)     0.00   875.00     0  00:00        0.00
  RICE_LAKE_032        JUNCTION  -nan(ind)     0.00   888.90     0  00:00        0.00
  RICE_LAKE_035        JUNCTION  -nan(ind)     0.00   894.61     0  00:00        0.00
  RICE_LAKE_037        JUNCTION  -nan(ind)     0.00   893.26     0  00:00        0.00
  RONDEAU_LAKE         JUNCTION  -nan(ind)     0.00   883.68     0  00:00        0.00
  OFALL-10             OUTFALL   -nan(ind)     0.00     0.00     0  00:00        0.00
  OFALL-BALDWIN        OUTFALL   -nan(ind)     0.00     0.00     0  00:00        0.00
  OFALL-CENTER         OUTFALL   -nan(ind)     0.00     0.00     0  00:00        0.00
  OFALL-CLEAR          OUTFALL   -nan(ind)     0.00     0.00     0  00:00        0.00
  OFALL-GWATCH         OUTFALL   -nan(ind)     0.00     0.00     0  00:00        0.00
  OFALL-HOWARD         OUTFALL   -nan(ind)     0.00     0.00     0  00:00        0.00
  OFALL-MARSH          OUTFALL   -nan(ind)     0.00     0.00     0  00:00        0.00
  OFALL-MUD            OUTFALL   -nan(ind)     0.00     0.00     0  00:00        0.00
  OFALL-PELTIER        OUTFALL   -nan(ind)     0.00     0.00     0  00:00        0.00
  OFALL-RICE           OUTFALL   -nan(ind)     0.00     0.00     0  00:00        0.00
  OFALL-URC            OUTFALL   -nan(ind)     0.00     0.00     0  00:00        0.00
  OFALL_CROSSWAYS      OUTFALL   -nan(ind)     0.00     0.00     0  00:00        0.00
  BALDWIN_002          STORAGE   -nan(ind)     0.00   885.00     0  00:00        0.00
  BALDWIN_003          STORAGE   -nan(ind)     0.00   889.00     0  00:00        0.00
  BALDWIN_004          STORAGE   -nan(ind)     0.00   887.00     0  00:00        0.00
  BALDWIN_005          STORAGE   -nan(ind)     0.00   889.00     0  00:00        0.00
  BALDWIN_006          STORAGE   -nan(ind)     0.00   897.00     0  00:00        0.00
  BALDWIN_007          STORAGE   -nan(ind)     0.00   896.00     0  00:00        0.00
  BALDWIN_008          STORAGE   -nan(ind)     0.00   898.00     0  00:00        0.00
  BALDWIN_009          STORAGE   -nan(ind)     0.00   897.00     0  00:00        0.00
  BALDWIN_011          STORAGE   -nan(ind)     0.00   893.00     0  00:00        0.00
  BALDWIN_013          STORAGE   -nan(ind)     0.00   900.00     0  00:00        0.00
  BALDWIN_014          STORAGE   -nan(ind)     0.00   887.00     0  00:00        0.00
  BALDWIN_019          STORAGE   -nan(ind)     0.00   889.00     0  00:00        0.00
  CENTERVILLE_002      STORAGE   -nan(ind)     0.00   885.00     0  00:00        0.00
  CENTERVILLE_003      STORAGE   -nan(ind)     0.00   884.00     0  00:00        0.00
  CENTERVILLE_005      STORAGE   -nan(ind)     0.00   897.00     0  00:00        0.00
  CENTERVILLE_006      STORAGE   -nan(ind)     0.00   887.00     0  00:00        0.00
  CENTERVILLE_007      STORAGE   -nan(ind)     0.00   894.00     0  00:00        0.00
  CENTERVILLE_008      STORAGE   -nan(ind)     0.00   900.00     0  00:00        0.00
  CENTERVILLE_009      STORAGE   -nan(ind)     0.00   900.00     0  00:00        0.00
  CENTERVILLE_010      STORAGE   -nan(ind)     0.00   901.00     0  00:00        0.00
  CENTERVILLE_011      STORAGE   -nan(ind)     0.00   903.00     0  00:00        0.00
  CENTERVILLE_012      STORAGE   -nan(ind)     0.00   903.00     0  00:00        0.00
  CENTERVILLE_013      STORAGE   -nan(ind)     0.00   900.00     0  00:00        0.00
  CENTERVILLE_014      STORAGE   -nan(ind)     0.00   904.00     0  00:00        0.00
  CENTERVILLE_015      STORAGE   -nan(ind)     0.00   905.00     0  00:00        0.00
  CENTERVILLE_017      STORAGE   -nan(ind)     0.00   905.00     0  00:00        0.00
  CLEAR_002            STORAGE   -nan(ind)     0.00   891.00     0  00:00        0.00
  CLEAR_003            STORAGE   -nan(ind)     0.00   903.00     0  00:00        0.00
  CLEAR_004            STORAGE   -nan(ind)     0.00   889.00     0  00:00        0.00
  CLEAR_005            STORAGE   -nan(ind)     0.00   894.00     0  00:00        0.00
  CLEAR_006            STORAGE   -nan(ind)     0.00   898.00     0  00:00        0.00
  CLEAR_007            STORAGE   -nan(ind)     0.00   902.00     0  00:00        0.00
  CLEAR_008            STORAGE   -nan(ind)     0.00   896.00     0  00:00        0.00
  CLEAR_009            STORAGE   -nan(ind)     0.00   891.00     0  00:00        0.00
  CLEAR_010            STORAGE   -nan(ind)     0.00   901.00     0  00:00        0.00
  CLEAR_011            STORAGE   -nan(ind)     0.00   903.00     0  00:00        0.00
  CLEAR_012            STORAGE   -nan(ind)     0.00   905.00     0  00:00        0.00
  CLEAR_013            STORAGE   -nan(ind)     0.00   901.00     0  00:00        0.00
  CLEAR_014            STORAGE   -nan(ind)     0.00   910.00     0  00:00        0.00
  CLEAR_015            STORAGE   -nan(ind)     0.00   912.00     0  00:00        0.00
  CLEAR_016            STORAGE   -nan(ind)     0.00   922.00     0  00:00        0.00
  CLEAR_017            STORAGE   -nan(ind)     0.00   929.00     0  00:00        0.00
  CLEAR_018            STORAGE   -nan(ind)     0.00   930.00     0  00:00        0.00
  CLEAR_019            STORAGE   -nan(ind)     0.00   940.00     0  00:00        0.00
  CLEAR_020            STORAGE   -nan(ind)     0.00   892.00     0  00:00        0.00
  CLEAR_021            STORAGE   -nan(ind)     0.00   903.00     0  00:00        0.00
  CLEAR_022            STORAGE   -nan(ind)     0.00   917.00     0  00:00        0.00
  CROSSWAYS_002        STORAGE   -nan(ind)     0.00   897.00     0  00:00        0.00
  CROSSWAYS_003        STORAGE   -nan(ind)     0.00   897.00     0  00:00        0.00
  CROSSWAYS_004        STORAGE   -nan(ind)     0.00   890.00     0  00:00        0.00
  CROSSWAYS_005        STORAGE   -nan(ind)     0.00   892.00     0  00:00        0.00
  CROSSWAYS_006        STORAGE   -nan(ind)     0.00   897.00     0  00:00        0.00
  CWC_PELTIER_001      STORAGE   -nan(ind)     0.00   889.00     0  00:00        0.00
  GWATCH_002           STORAGE   -nan(ind)     0.00   878.00     0  00:00        0.00
  GWATCH_003           STORAGE   -nan(ind)     0.00   878.00     0  00:00        0.00
  GWATCH_004           STORAGE   -nan(ind)     0.00   884.00     0  00:00        0.00
  GWATCH_005           STORAGE   -nan(ind)     0.00   887.00     0  00:00        0.00
  GWATCH_006           STORAGE   -nan(ind)     0.00   881.00     0  00:00        0.00
  GWATCH_007           STORAGE   -nan(ind)     0.00   889.00     0  00:00        0.00
  GWATCH_008           STORAGE   -nan(ind)     0.00   890.00     0  00:00        0.00
  GWATCH_009           STORAGE   -nan(ind)     0.00   893.00     0  00:00        0.00
  GWATCH_010           STORAGE   -nan(ind)     0.00   891.00     0  00:00        0.00
  GWATCH_011           STORAGE   -nan(ind)     0.00   883.00     0  00:00        0.00
  GWATCH_012           STORAGE   -nan(ind)     0.00   891.00     0  00:00        0.00
  GWATCH_013           STORAGE   -nan(ind)     0.00   900.00     0  00:00        0.00
  GWATCH_014           STORAGE   -nan(ind)     0.00   899.00     0  00:00        0.00
  GWATCH_015           STORAGE   -nan(ind)     0.00   897.00     0  00:00        0.00
  GWATCH_016           STORAGE   -nan(ind)     0.00   899.00     0  00:00        0.00
  GWATCH_018           STORAGE   -nan(ind)     0.00   898.00     0  00:00        0.00
  GWATCH_019           STORAGE   -nan(ind)     0.00   898.00     0  00:00        0.00
  GWATCH_020           STORAGE   -nan(ind)     0.00   899.00     0  00:00        0.00
  GWATCH_021           STORAGE   -nan(ind)     0.00   894.00     0  00:00        0.00
  GWATCH_022           STORAGE   -nan(ind)     0.00   906.00     0  00:00        0.00
  GWATCH_023           STORAGE   -nan(ind)     0.00   885.00     0  00:00        0.00
  GWATCH_024           STORAGE   -nan(ind)     0.00   882.00     0  00:00        0.00
  GWATCH_025           STORAGE   -nan(ind)     0.00   880.00     0  00:00        0.00
  GWATCH_026           STORAGE   -nan(ind)     0.00   878.00     0  00:00        0.00
  GWATCH_027           STORAGE   -nan(ind)     0.00   885.00     0  00:00        0.00
  GWATCH_028           STORAGE   -nan(ind)     0.00   890.00     0  00:00        0.00
  GWATCH_029           STORAGE   -nan(ind)     0.00   891.00     0  00:00        0.00
  GWATCH_030           STORAGE   -nan(ind)     0.00   890.00     0  00:00        0.00
  GWATCH_031           STORAGE   -nan(ind)     0.00   894.00     0  00:00        0.00
  GWATCH_032           STORAGE   -nan(ind)     0.00   890.00     0  00:00        0.00
  GWATCH_033           STORAGE   -nan(ind)     0.00   892.00     0  00:00        0.00
  HOWARD_002           STORAGE   -nan(ind)     0.00   894.00     0  00:00        0.00
  HOWARD_003           STORAGE   -nan(ind)     0.00   891.00     0  00:00        0.00
  HOWARD_004           STORAGE   -nan(ind)     0.00   894.00     0  00:00        0.00
  HOWARD_005           STORAGE   -nan(ind)     0.00   898.00     0  00:00        0.00
  HOWARD_006           STORAGE   -nan(ind)     0.00   899.00     0  00:00        0.00
  HOWARD_007           STORAGE   -nan(ind)     0.00   892.00     0  00:00        0.00
  HOWARD_008           STORAGE   -nan(ind)     0.00   899.00     0  00:00        0.00
  HOWARD_009           STORAGE   -nan(ind)     0.00   900.00     0  00:00        0.00
  MUD_002              STORAGE   -nan(ind)     0.00   892.00     0  00:00        0.00
  MUD_003              STORAGE   -nan(ind)     0.00   893.00     0  00:00        0.00
  MUD_004              STORAGE   -nan(ind)     0.00   893.00     0  00:00        0.00
  MUD_005              STORAGE   -nan(ind)     0.00   891.00     0  00:00        0.00
  MUD_006              STORAGE   -nan(ind)     0.00   895.00     0  00:00        0.00
  PELTIER_002          STORAGE   -nan(ind)     0.00   882.00     0  00:00        0.00
  PELTIER_003          STORAGE   -nan(ind)     0.00   884.00     0  00:00        0.00
  PELTIER_006          STORAGE   -nan(ind)     0.00   894.00     0  00:00        0.00
  PELTIER_009          STORAGE   -nan(ind)     0.00   883.00     0  00:00        0.00
  RICE_LAKE_002        STORAGE   -nan(ind)     0.00   883.00     0  00:00        0.00
  RICE_LAKE_003        STORAGE   -nan(ind)     0.00   883.00     0  00:00        0.00
  RICE_LAKE_004        STORAGE   -nan(ind)     0.00   879.00     0  00:00        0.00
  RICE_LAKE_005        STORAGE   -nan(ind)     0.00   882.00     0  00:00        0.00
  RICE_LAKE_006        STORAGE   -nan(ind)     0.00   881.00     0  00:00        0.00
  RICE_LAKE_007        STORAGE   -nan(ind)     0.00   881.00     0  00:00        0.00
  RICE_LAKE_009        STORAGE   -nan(ind)     0.00   884.00     0  00:00        0.00
  RICE_LAKE_010        STORAGE   -nan(ind)     0.00   886.00     0  00:00        0.00
  RICE_LAKE_011        STORAGE   -nan(ind)     0.00   888.00     0  00:00        0.00
  RICE_LAKE_012        STORAGE   -nan(ind)     0.00   885.00     0  00:00        0.00
  RICE_LAKE_013        STORAGE   -nan(ind)     0.00   890.00     0  00:00        0.00
  RICE_LAKE_014        STORAGE   -nan(ind)     0.00   895.00     0  00:00        0.00
  RICE_LAKE_015        STORAGE   -nan(ind)     0.00   892.00     0  00:00        0.00
  RICE_LAKE_016        STORAGE   -nan(ind)     0.00   885.00     0  00:00        0.00
  RICE_LAKE_017        STORAGE   -nan(ind)     0.00   885.00     0  00:00        0.00
  RICE_LAKE_018        STORAGE   -nan(ind)     0.00   886.00     0  00:00        0.00
  RICE_LAKE_019        STORAGE   -nan(ind)     0.00   886.00     0  00:00        0.00
  RICE_LAKE_020        STORAGE   -nan(ind)     0.00   889.00     0  00:00        0.00
  RICE_LAKE_021        STORAGE   -nan(ind)     0.00   887.00     0  00:00        0.00
  RICE_LAKE_022        STORAGE   -nan(ind)     0.00   889.00     0  00:00        0.00
  RICE_LAKE_023        STORAGE   -nan(ind)     0.00   894.00     0  00:00        0.00
  RICE_LAKE_024        STORAGE   -nan(ind)     0.00   892.00     0  00:00        0.00
  RICE_LAKE_025        STORAGE   -nan(ind)     0.00   892.00     0  00:00        0.00
  RICE_LAKE_026        STORAGE   -nan(ind)     0.00   888.00     0  00:00        0.00
  RICE_LAKE_031        STORAGE   -nan(ind)     0.00   884.00     0  00:00        0.00
  RICE_LAKE_033        STORAGE   -nan(ind)     0.00   892.00     0  00:00        0.00
  RICE_LAKE_036        STORAGE   -nan(ind)     0.00   894.00     0  00:00        0.00
  RICE_LAKE_038        STORAGE   -nan(ind)     0.00   895.00     0  00:00        0.00
  RICE_LAKE_039        STORAGE   -nan(ind)     0.00   898.00     0  00:00        0.00
  RONDEAU_003          STORAGE   -nan(ind)     0.00   885.99     0  00:00        0.00
  RONDEAU_004          STORAGE   -nan(ind)     0.00   883.00     0  00:00        0.00
  RONDEAU_005          STORAGE   -nan(ind)     0.00   885.00     0  00:00        0.00
  RONDEAU_006          STORAGE   -nan(ind)     0.00   885.00     0  00:00        0.00
  RONDEAU_007          STORAGE   -nan(ind)     0.00   885.00     0  00:00        0.00
  RONDEAU_008          STORAGE   -nan(ind)     0.00   885.00     0  00:00        0.00
  RONDEAU_009          STORAGE   -nan(ind)     0.00   885.00     0  00:00        0.00
  RONDEAU_010          STORAGE   -nan(ind)     0.00   885.00     0  00:00        0.00
  RONDEAU_011          STORAGE   -nan(ind)     0.00   881.00     0  00:00        0.00
  RONDEAU_012          STORAGE   -nan(ind)     0.00   885.00     0  00:00        0.00
  RONDEAU_013          STORAGE   -nan(ind)     0.00   891.00     0  00:00        0.00
  RONDEAU_014          STORAGE   -nan(ind)     0.00   892.00     0  00:00        0.00
  ST_URC_MT_008        STORAGE   -nan(ind)     0.00   893.00     0  00:00        0.00
  S_PELTIER_002        STORAGE   -nan(ind)     0.00   889.00     0  00:00        0.00
  S_PELTIER_003        STORAGE   -nan(ind)     0.00   896.00     0  00:00        0.00
  S_PELTIER_004        STORAGE   -nan(ind)     0.00   897.00     0  00:00        0.00
  S_PELTIER_005        STORAGE   -nan(ind)     0.00   904.00     0  00:00        0.00
  S_PELTIER_006        STORAGE   -nan(ind)     0.00   903.00     0  00:00        0.00
  S_PELTIER_007        STORAGE   -nan(ind)     0.00   897.00     0  00:00        0.00
  S_PELTIER_008        STORAGE   -nan(ind)     0.00   905.00     0  00:00        0.00
  S_URC_MT_002         STORAGE   -nan(ind)     0.00   883.00     0  00:00        0.00
  S_URC_MT_007         STORAGE   -nan(ind)     0.00   889.00     0  00:00        0.00
  S_URC_MT_06          STORAGE   -nan(ind)     0.00   889.00     0  00:00        0.00
  
  
  *******************
  Node Inflow Summary
  *******************
  
  -------------------------------------------------------------------------------------------------
                                  Maximum  Maximum                  Lateral       Total        Flow
                                  Lateral    Total  Time of Max      Inflow      Inflow     Balance
                                   Inflow   Inflow   Occurrence      Volume      Volume       Error
  Node                 Type           CFS      CFS  days hr:min    10^6 gal    10^6 gal     Percent
  -------------------------------------------------------------------------------------------------
  BALDWIN_LAKE         JUNCTION      0.00     0.00     0  00:00           0           0       0.000 gal
  CENTERVILLE_LAKE     JUNCTION      0.00     0.00     0  00:00           0           0       0.000 gal
  CLEAR_LAKE           JUNCTION      0.00     0.00     0  00:00           0           0       0.000 gal
  CROSSWAYS_LAKE       JUNCTION      0.00     0.00     0  00:00           0           0       0.000 gal
  GEORGE_WATCH_LAK     JUNCTION      0.00     0.00     0  00:00           0           0       0.000 gal
  HOWARD_LAKE          JUNCTION      0.00     0.00     0  00:00           0           0       0.000 gal
  J_UPPER_RICE_CR      JUNCTION      0.00     0.00     0  00:00           0           0       0.000 gal
  MARSHAN_LAKE         JUNCTION      0.00     0.00     0  00:00           0           0       0.000 gal
  MUD_LAKE             JUNCTION      0.00     0.00     0  00:00           0           0       0.000 gal
  PELTIER_LAKE         JUNCTION      0.00     0.00     0  00:00           0           0       0.000 gal
  RICE_LAKE            JUNCTION      0.00     0.00     0  00:00           0           0       0.000 gal
  RICE_LAKE_032        JUNCTION      0.00     0.00     0  00:00           0           0       0.000 gal
  RICE_LAKE_035        JUNCTION      0.00     0.00     0  00:00           0           0       0.000 gal
  RICE_LAKE_037        JUNCTION      0.00     0.00     0  00:00           0           0       0.000 gal
  RONDEAU_LAKE         JUNCTION      0.00     0.00     0  00:00           0           0       0.000 gal
  OFALL-10             OUTFALL       0.00     0.00     0  00:00           0           0       0.000 gal
  OFALL-BALDWIN        OUTFALL       0.00     0.00     0  00:00           0           0       0.000 gal
  OFALL-CENTER         OUTFALL       0.00     0.00     0  00:00           0           0       0.000 gal
  OFALL-CLEAR          OUTFALL       0.00     0.00     0  00:00           0           0       0.000 gal
  OFALL-GWATCH         OUTFALL       0.00     0.00     0  00:00           0           0       0.000 gal
  OFALL-HOWARD         OUTFALL       0.00     0.00     0  00:00           0           0       0.000 gal
  OFALL-MARSH          OUTFALL       0.00     0.00     0  00:00           0           0       0.000 gal
  OFALL-MUD            OUTFALL       0.00     0.00     0  00:00           0           0       0.000 gal
  OFALL-PELTIER        OUTFALL       0.00     0.00     0  00:00           0           0       0.000 gal
  OFALL-RICE           OUTFALL       0.00     0.00     0  00:00           0           0       0.000 gal
  OFALL-URC            OUTFALL       0.00     0.00     0  00:00           0           0       0.000 gal
  OFALL_CROSSWAYS      OUTFALL       0.00     0.00     0  00:00           0           0       0.000 gal
  BALDWIN_002          STORAGE       0.00     0.00     0  00:00           0    0.000104       0.000
  BALDWIN_003          STORAGE       0.00     0.00     0  00:00           0           0       0.000 gal
  BALDWIN_004          STORAGE       0.00     0.00     0  00:00           0        0.33       0.000
  BALDWIN_005          STORAGE       0.00     0.00     0  00:00           0           0       0.000 gal
  BALDWIN_006          STORAGE       0.00     0.00     0  00:00           0           0       0.000 gal
  BALDWIN_007          STORAGE       0.00     0.00     0  00:00           0       0.787       0.000
  BALDWIN_008          STORAGE       0.00     0.00     0  00:00           0           0       0.000 gal
  BALDWIN_009          STORAGE       0.00     0.00     0  00:00           0       0.146       0.000
  BALDWIN_011          STORAGE       0.00     0.00     0  00:00           0           0       0.000 gal
  BALDWIN_013          STORAGE       0.00     0.00     0  00:00           0           0       0.000 gal
  BALDWIN_014          STORAGE       0.00     0.00     0  00:00           0      0.0196       0.000
  BALDWIN_019          STORAGE       0.00     0.00     0  00:00           0       0.056       0.000
  CENTERVILLE_002      STORAGE       0.00     0.00     0  00:00           0           0       0.000 gal
  CENTERVILLE_003      STORAGE       0.00     0.00     0  00:00           0           0       0.000 gal
  CENTERVILLE_005      STORAGE       0.00     0.00     0  00:00           0           0       0.000 gal
  CENTERVILLE_006      STORAGE       0.00     0.00     0  00:00           0           0       0.000 gal
  CENTERVILLE_007      STORAGE       0.00     0.00     0  00:00           0           0       0.000 gal
  CENTERVILLE_008      STORAGE       0.00     0.00     0  00:00           0           0       0.000 gal
  CENTERVILLE_009      STORAGE       0.00     0.00     0  00:00           0           0       0.000 gal
  CENTERVILLE_010      STORAGE       0.00     0.00     0  00:00           0           0       0.000 gal
  CENTERVILLE_011      STORAGE       0.00     0.00     0  00:00           0           0       0.000 gal
  CENTERVILLE_012      STORAGE       0.00     0.00     0  00:00           0           0       0.000 gal
  CENTERVILLE_013      STORAGE       0.00     0.00     0  00:00           0    6.79e-05       0.000
  CENTERVILLE_014      STORAGE       0.00     0.00     0  00:00           0           0       0.000 gal
  CENTERVILLE_015      STORAGE       0.00     0.00     0  00:00           0           0       0.000 gal
  CENTERVILLE_017      STORAGE       0.00     0.00     0  00:00           0           0       0.000 gal
  CLEAR_002            STORAGE       0.00     0.00     0  00:00           0    4.53e-05       0.000
  CLEAR_003            STORAGE       0.00     0.00     0  00:00           0    0.000216       0.000
  CLEAR_004            STORAGE       0.00     0.00     0  00:00           0           0       0.000 gal
  CLEAR_005            STORAGE       0.00     0.00     0  00:00           0           0       0.000 gal
  CLEAR_006            STORAGE       0.00     0.00     0  00:00           0           0       0.000 gal
  CLEAR_007            STORAGE       0.00     0.00     0  00:00           0           0       0.000 gal
  CLEAR_008            STORAGE       0.00     0.00     0  00:00           0           0       0.000 gal
  CLEAR_009            STORAGE       0.00     0.00     0  00:00           0      0.0255       0.000
  CLEAR_010            STORAGE       0.00     0.00     0  00:00           0           0       0.000 gal
  CLEAR_011            STORAGE       0.00     0.00     0  00:00           0           0       0.000 gal
  CLEAR_012            STORAGE       0.00     0.00     0  00:00           0    4.82e-06       0.000 gal
  CLEAR_013            STORAGE       0.00     0.00     0  00:00           0           0       0.000 gal
  CLEAR_014            STORAGE       0.00     0.00     0  00:00           0           0       0.000 gal
  CLEAR_015            STORAGE       0.00     0.00     0  00:00           0           0       0.000 gal
  CLEAR_016            STORAGE       0.00     0.00     0  00:00           0           0       0.000 gal
  CLEAR_017            STORAGE       0.00     0.00     0  00:00           0           0       0.000 gal
  CLEAR_018            STORAGE       0.00     0.00     0  00:00           0       0.183       0.000
  CLEAR_019            STORAGE       0.00     0.00     0  00:00           0           0       0.000 gal
  CLEAR_020            STORAGE       0.00     0.00     0  00:00           0      0.0432       0.000
  CLEAR_021            STORAGE       0.00     0.00     0  00:00           0           0       0.000 gal
  CLEAR_022            STORAGE       0.00     0.00     0  00:00           0           0       0.000 gal
  CROSSWAYS_002        STORAGE       0.00     0.00     0  00:00           0       0.137       0.000
  CROSSWAYS_003        STORAGE       0.00     0.00     0  00:00           0           0       0.000 gal
  CROSSWAYS_004        STORAGE       0.00     0.00     0  00:00           0           0       0.000 gal
  CROSSWAYS_005        STORAGE       0.00     0.00     0  00:00           0           0       0.000 gal
  CROSSWAYS_006        STORAGE       0.00     0.00     0  00:00           0           0       0.000 gal
  CWC_PELTIER_001      STORAGE       0.00     0.00     0  00:00           0           0       0.000 gal
  GWATCH_002           STORAGE       0.00     0.00     0  00:00           0           0       0.000 gal
  GWATCH_003           STORAGE       0.00     0.00     0  00:00           0           0       0.000 gal
  GWATCH_004           STORAGE       0.00     0.00     0  00:00           0      0.0498       0.000
  GWATCH_005           STORAGE       0.00     0.00     0  00:00           0     0.00185       0.000
  GWATCH_006           STORAGE       0.00     0.00     0  00:00           0    8.59e-05       0.000
  GWATCH_007           STORAGE       0.00     0.00     0  00:00           0           0       0.000 gal
  GWATCH_008           STORAGE       0.00     0.00     0  00:00           0           0       0.000 gal
  GWATCH_009           STORAGE       0.00     0.00     0  00:00           0           0       0.000 gal
  GWATCH_010           STORAGE       0.00     0.00     0  00:00           0           0       0.000 gal
  GWATCH_011           STORAGE       0.00     0.00     0  00:00           0     0.00181       0.000
  GWATCH_012           STORAGE       0.00     0.00     0  00:00           0           0       0.000 gal
  GWATCH_013           STORAGE       0.00     0.00     0  00:00           0    0.000491       0.000
  GWATCH_014           STORAGE       0.00     0.00     0  00:00           0           0       0.000 gal
  GWATCH_015           STORAGE       0.00     0.00     0  00:00           0      0.0279       0.000
  GWATCH_016           STORAGE       0.00     0.00     0  00:00           0           0       0.000 gal
  GWATCH_018           STORAGE       0.00     0.00     0  00:00           0           0       0.000 gal
  GWATCH_019           STORAGE       0.00     0.00     0  00:00           0       0.458       0.000
  GWATCH_020           STORAGE       0.00     0.00     0  00:00           0       0.199       0.000
  GWATCH_021           STORAGE       0.00     0.00     0  00:00           0           0       0.000 gal
  GWATCH_022           STORAGE       0.00     0.00     0  00:00           0    8.08e-06       0.000
  GWATCH_023           STORAGE       0.00     0.00     0  00:00           0           0       0.000 gal
  GWATCH_024           STORAGE       0.00     0.00     0  00:00           0           0       0.000 gal
  GWATCH_025           STORAGE       0.00     0.00     0  00:00           0    0.000126       0.000
  GWATCH_026           STORAGE       0.00     0.00     0  00:00           0    0.000126       0.000
  GWATCH_027           STORAGE       0.00     0.00     0  00:00           0    0.000165       0.000
  GWATCH_028           STORAGE       0.00     0.00     0  00:00           0           0       0.000 gal
  GWATCH_029           STORAGE       0.00     0.00     0  00:00           0           0       0.000 gal
  GWATCH_030           STORAGE       0.00     0.00     0  00:00           0           0       0.000 gal
  GWATCH_031           STORAGE       0.00     0.00     0  00:00           0           0       0.000 gal
  GWATCH_032           STORAGE       0.00     0.00     0  00:00           0           0       0.000 gal
  GWATCH_033           STORAGE       0.00     0.00     0  00:00           0           0       0.000 gal
  HOWARD_002           STORAGE       0.00     0.00     0  00:00           0           0       0.000 gal
  HOWARD_003           STORAGE       0.00     0.00     0  00:00           0           0       0.000 gal
  HOWARD_004           STORAGE       0.00     0.00     0  00:00           0           0       0.000 gal
  HOWARD_005           STORAGE       0.00     0.00     0  00:00           0           0       0.000 gal
  HOWARD_006           STORAGE       0.00     0.00     0  00:00           0           0       0.000 gal
  HOWARD_007           STORAGE       0.00     0.00     0  00:00           0    0.000237       0.000
  HOWARD_008           STORAGE       0.00     0.00     0  00:00           0           0       0.000 gal
  HOWARD_009           STORAGE       0.00     0.00     0  00:00           0           0       0.000 gal
  MUD_002              STORAGE       0.00     0.00     0  00:00           0           0       0.000 gal
  MUD_003              STORAGE       0.00     0.00     0  00:00           0           0       0.000 gal
  MUD_004              STORAGE       0.00     0.00     0  00:00           0           0       0.000 gal
  MUD_005              STORAGE       0.00     0.00     0  00:00           0           0       0.000 gal
  MUD_006              STORAGE       0.00     0.00     0  00:00           0           0       0.000 gal
  PELTIER_002          STORAGE       0.00     0.00     0  00:00           0           0       0.000 gal
  PELTIER_003          STORAGE       0.00     0.00     0  00:00           0           0       0.000 gal
  PELTIER_006          STORAGE       0.00     0.00     0  00:00           0    0.000815       0.000
  PELTIER_009          STORAGE       0.00     0.00     0  00:00           0           0       0.000 gal
  RICE_LAKE_002        STORAGE       0.00     0.00     0  00:00           0     0.00568       0.000
  RICE_LAKE_003        STORAGE       0.00     0.00     0  00:00           0      0.0089       0.000
  RICE_LAKE_004        STORAGE       0.00     0.00     0  00:00           0           0       0.000 gal
  RICE_LAKE_005        STORAGE       0.00     0.00     0  00:00           0     0.00218       0.000
  RICE_LAKE_006        STORAGE       0.00     0.00     0  00:00           0      0.0219       0.000
  RICE_LAKE_007        STORAGE       0.00     0.00     0  00:00           0     0.00514       0.000
  RICE_LAKE_009        STORAGE       0.00     0.00     0  00:00           0     0.00474       0.000
  RICE_LAKE_010        STORAGE       0.00     0.00     0  00:00           0           0       0.000 gal
  RICE_LAKE_011        STORAGE       0.00     0.00     0  00:00           0           0       0.000 gal
  RICE_LAKE_012        STORAGE       0.00     0.00     0  00:00           0       0.003       0.000
  RICE_LAKE_013        STORAGE       0.00     0.00     0  00:00           0     0.00461       0.000
  RICE_LAKE_014        STORAGE       0.00     0.00     0  00:00           0           0       0.000 gal
  RICE_LAKE_015        STORAGE       0.00     0.00     0  00:00           0      0.0162       0.000
  RICE_LAKE_016        STORAGE       0.00     0.00     0  00:00           0           0       0.000 gal
  RICE_LAKE_017        STORAGE       0.00     0.00     0  00:00           0           0       0.000 gal
  RICE_LAKE_018        STORAGE       0.00     0.00     0  00:00           0           0       0.000 gal
  RICE_LAKE_019        STORAGE       0.00     0.00     0  00:00           0           0       0.000 gal
  RICE_LAKE_020        STORAGE       0.00     0.00     0  00:00           0      0.0696       0.000
  RICE_LAKE_021        STORAGE       0.00     0.00     0  00:00           0      0.0843       0.000
  RICE_LAKE_022        STORAGE       0.00     0.00     0  00:00           0      0.0251       0.000
  RICE_LAKE_023        STORAGE       0.00     0.00     0  00:00           0      0.0289       0.000
  RICE_LAKE_024        STORAGE       0.00     0.00     0  00:00           0       0.294       0.000
  RICE_LAKE_025        STORAGE       0.00     0.00     0  00:00           0       0.969       0.000
  RICE_LAKE_026        STORAGE       0.00     0.00     0  00:00           0      0.0174       0.000
  RICE_LAKE_031        STORAGE       0.00     0.00     0  00:00           0    9.89e-05       0.000
  RICE_LAKE_033        STORAGE       0.00     0.00     0  00:00           0           0       0.000 gal
  RICE_LAKE_036        STORAGE       0.00     0.00     0  00:00           0           0       0.000 gal
  RICE_LAKE_038        STORAGE       0.00     0.00     0  00:00           0       0.554       0.000
  RICE_LAKE_039        STORAGE       0.00     0.00     0  00:00           0           0       0.000 gal
  RONDEAU_003          STORAGE       0.00     0.00     0  00:00           0           0       0.000 gal
  RONDEAU_004          STORAGE       0.00     0.00     0  00:00           0    0.000629       0.000
  RONDEAU_005          STORAGE       0.00     0.00     0  00:00           0           0       0.000 gal
  RONDEAU_006          STORAGE       0.00     0.00     0  00:00           0           0       0.000 gal
  RONDEAU_007          STORAGE       0.00     0.00     0  00:00           0           0       0.000 gal
  RONDEAU_008          STORAGE       0.00     0.00     0  00:00           0           0       0.000 gal
  RONDEAU_009          STORAGE       0.00     0.00     0  00:00           0           0       0.000 gal
  RONDEAU_010          STORAGE       0.00     0.00     0  00:00           0           0       0.000 gal
  RONDEAU_011          STORAGE       0.00     0.00     0  00:00           0           0       0.000 gal
  RONDEAU_012          STORAGE       0.00     0.00     0  00:00           0           0       0.000 gal
  RONDEAU_013          STORAGE       0.00     0.00     0  00:00           0           0       0.000 gal
  RONDEAU_014          STORAGE       0.00     0.00     0  00:00           0           0       0.000 gal
  ST_URC_MT_008        STORAGE       0.00     0.00     0  00:00           0           0       0.000 gal
  S_PELTIER_002        STORAGE       0.00     0.00     0  00:00           0           0       0.000 gal
  S_PELTIER_003        STORAGE       0.00     0.00     0  00:00           0           0       0.000 gal
  S_PELTIER_004        STORAGE       0.00     0.00     0  00:00           0           0       0.000 gal
  S_PELTIER_005        STORAGE       0.00     0.00     0  00:00           0           0       0.000 gal
  S_PELTIER_006        STORAGE       0.00     0.00     0  00:00           0           0       0.000 gal
  S_PELTIER_007        STORAGE       0.00     0.00     0  00:00           0           0       0.000 gal
  S_PELTIER_008        STORAGE       0.00     0.00     0  00:00           0           0       0.000 gal
  S_URC_MT_002         STORAGE       0.00     0.00     0  00:00           0           0       0.000 gal
  S_URC_MT_007         STORAGE       0.00     0.00     0  00:00           0           0       0.000 gal
  S_URC_MT_06          STORAGE       0.00     0.00     0  00:00           0           0       0.000 gal
  
  
  **********************
  Node Surcharge Summary
  **********************
  
  No nodes were surcharged.
  
  
  *********************
  Node Flooding Summary
  *********************
  
  No nodes were flooded.
  
  
  **********************
  Storage Volume Summary
  **********************
  
  --------------------------------------------------------------------------------------------------
                         Average     Avg  Evap Exfil       Maximum     Max    Time of Max    Maximum
                          Volume    Pcnt  Pcnt  Pcnt        Volume    Pcnt     Occurrence    Outflow
  Storage Unit          1000 ft3    Full  Loss  Loss      1000 ft3    Full    days hr:min        CFS
  --------------------------------------------------------------------------------------------------
  BALDWIN_002          -nan(ind)    -nan(ind)     0     0         0.000       0       0  00:00       0.00
  BALDWIN_003          -nan(ind)    -nan(ind)     0     0         0.000       0       0  00:00       0.00
  BALDWIN_004          -nan(ind)    -nan(ind)     0     0         0.000       0       0  00:00       0.00
  BALDWIN_005          -nan(ind)    -nan(ind)     0     0         0.000       0       0  00:00       0.00
  BALDWIN_006          -nan(ind)    -nan(ind)     0     0         0.000       0       0  00:00       0.00
  BALDWIN_007          -nan(ind)    -nan(ind)     0     0         0.000       0       0  00:00       0.00
  BALDWIN_008          -nan(ind)    -nan(ind)     0     0         0.000       0       0  00:00       0.00
  BALDWIN_009          -nan(ind)    -nan(ind)     0     0         0.000       0       0  00:00       0.00
  BALDWIN_011          -nan(ind)    -nan(ind)     0     0         0.000       0       0  00:00       0.00
  BALDWIN_013          -nan(ind)    -nan(ind)     0     0         0.000       0       0  00:00       0.00
  BALDWIN_014          -nan(ind)    -nan(ind)     0     0         0.000       0       0  00:00       0.00
  BALDWIN_019          -nan(ind)    -nan(ind)     0     0         0.000       0       0  00:00       0.00
  CENTERVILLE_002      -nan(ind)    -nan(ind)     0     0         0.000       0       0  00:00       0.00
  CENTERVILLE_003      -nan(ind)    -nan(ind)     0     0         0.000       0       0  00:00       0.00
  CENTERVILLE_005      -nan(ind)    -nan(ind)     0     0         0.000       0       0  00:00       0.00
  CENTERVILLE_006      -nan(ind)    -nan(ind)     0     0         0.000       0       0  00:00       0.00
  CENTERVILLE_007      -nan(ind)    -nan(ind)     0     0         0.000       0       0  00:00       0.00
  CENTERVILLE_008      -nan(ind)    -nan(ind)     0     0         0.000       0       0  00:00       0.00
  CENTERVILLE_009      -nan(ind)    -nan(ind)     0     0         0.000       0       0  00:00       0.00
  CENTERVILLE_010      -nan(ind)    -nan(ind)     0     0         0.000       0       0  00:00       0.00
  CENTERVILLE_011      -nan(ind)    -nan(ind)     0     0         0.000       0       0  00:00       0.00
  CENTERVILLE_012      -nan(ind)    -nan(ind)     0     0         0.000       0       0  00:00       0.00
  CENTERVILLE_013      -nan(ind)    -nan(ind)     0     0         0.000       0       0  00:00       0.00
  CENTERVILLE_014      -nan(ind)    -nan(ind)     0     0         0.000       0       0  00:00       0.00
  CENTERVILLE_015      -nan(ind)    -nan(ind)     0     0         0.000       0       0  00:00       0.00
  CENTERVILLE_017      -nan(ind)    -nan(ind)     0     0         0.000       0       0  00:00       0.00
  CLEAR_002            -nan(ind)    -nan(ind)     0     0         0.000       0       0  00:00       0.00
  CLEAR_003            -nan(ind)    -nan(ind)     0     0         0.000       0       0  00:00       0.00
  CLEAR_004            -nan(ind)    -nan(ind)     0     0         0.000       0       0  00:00       0.00
  CLEAR_005            -nan(ind)    -nan(ind)     0     0         0.000       0       0  00:00       0.00
  CLEAR_006            -nan(ind)    -nan(ind)     0     0         0.000       0       0  00:00       0.00
  CLEAR_007            -nan(ind)    -nan(ind)     0     0         0.000       0       0  00:00       0.00
  CLEAR_008            -nan(ind)    -nan(ind)     0     0         0.000       0       0  00:00       0.00
  CLEAR_009            -nan(ind)    -nan(ind)     0     0         0.000       0       0  00:00       0.00
  CLEAR_010            -nan(ind)    -nan(ind)     0     0         0.000       0       0  00:00       0.00
  CLEAR_011            -nan(ind)    -nan(ind)     0     0         0.000       0       0  00:00       0.00
  CLEAR_012            -nan(ind)    -nan(ind)     0     0         0.000       0       0  00:00       0.00
  CLEAR_013            -nan(ind)    -nan(ind)     0     0         0.000       0       0  00:00       0.00
  CLEAR_014            -nan(ind)    -nan(ind)     0     0         0.000       0       0  00:00       0.00
  CLEAR_015            -nan(ind)    -nan(ind)     0     0         0.000       0       0  00:00       0.00
  CLEAR_016            -nan(ind)    -nan(ind)     0     0         0.000       0       0  00:00       0.00
  CLEAR_017            -nan(ind)    -nan(ind)     0     0         0.000       0       0  00:00       0.00
  CLEAR_018            -nan(ind)    -nan(ind)     0     0         0.000       0       0  00:00       0.00
  CLEAR_019            -nan(ind)    -nan(ind)     0     0         0.000       0       0  00:00       0.00
  CLEAR_020            -nan(ind)    -nan(ind)     0     0         0.000       0       0  00:00       0.00
  CLEAR_021            -nan(ind)    -nan(ind)     0     0         0.000       0       0  00:00       0.00
  CLEAR_022            -nan(ind)    -nan(ind)     0     0         0.000       0       0  00:00       0.00
  CROSSWAYS_002        -nan(ind)    -nan(ind)     0     0         0.000       0       0  00:00       0.00
  CROSSWAYS_003        -nan(ind)    -nan(ind)     0     0         0.000       0       0  00:00       0.00
  CROSSWAYS_004        -nan(ind)    -nan(ind)     0     0         0.000       0       0  00:00       0.00
  CROSSWAYS_005        -nan(ind)    -nan(ind)     0     0         0.000       0       0  00:00       0.00
  CROSSWAYS_006        -nan(ind)    -nan(ind)     0     0         0.000       0       0  00:00       0.00
  CWC_PELTIER_001      -nan(ind)    -nan(ind)     0     0         0.000       0       0  00:00       0.00
  GWATCH_002           -nan(ind)    -nan(ind)     0     0         0.000       0       0  00:00       0.00
  GWATCH_003           -nan(ind)    -nan(ind)     0     0         0.000       0       0  00:00       0.00
  GWATCH_004           -nan(ind)    -nan(ind)     0     0         0.000       0       0  00:00       0.00
  GWATCH_005           -nan(ind)    -nan(ind)     0     0         0.000       0       0  00:00       0.00
  GWATCH_006           -nan(ind)    -nan(ind)     0     0         0.000       0       0  00:00       0.00
  GWATCH_007           -nan(ind)    -nan(ind)     0     0         0.000       0       0  00:00       0.00
  GWATCH_008           -nan(ind)    -nan(ind)     0     0         0.000       0       0  00:00       0.00
  GWATCH_009           -nan(ind)    -nan(ind)     0     0         0.000       0       0  00:00       0.00
  GWATCH_010           -nan(ind)    -nan(ind)     0     0         0.000       0       0  00:00       0.00
  GWATCH_011           -nan(ind)    -nan(ind)     0     0         0.000       0       0  00:00       0.00
  GWATCH_012           -nan(ind)    -nan(ind)     0     0         0.000       0       0  00:00       0.00
  GWATCH_013           -nan(ind)    -nan(ind)     0     0         0.000       0       0  00:00       0.00
  GWATCH_014           -nan(ind)    -nan(ind)     0     0         0.000       0       0  00:00       0.00
  GWATCH_015           -nan(ind)    -nan(ind)     0     0         0.000       0       0  00:00       0.00
  GWATCH_016           -nan(ind)    -nan(ind)     0     0         0.000       0       0  00:00       0.00
  GWATCH_018           -nan(ind)    -nan(ind)     0     0         0.000       0       0  00:00       0.00
  GWATCH_019           -nan(ind)    -nan(ind)     0     0         0.000       0       0  00:00       0.00
  GWATCH_020           -nan(ind)    -nan(ind)     0     0         0.000       0       0  00:00       0.00
  GWATCH_021           -nan(ind)    -nan(ind)     0     0         0.000       0       0  00:00       0.00
  GWATCH_022           -nan(ind)    -nan(ind)     0     0         0.000       0       0  00:00       0.00
  GWATCH_023           -nan(ind)    -nan(ind)     0     0         0.000       0       0  00:00       0.00
  GWATCH_024           -nan(ind)    -nan(ind)     0     0         0.000       0       0  00:00       0.00
  GWATCH_025           -nan(ind)    -nan(ind)     0     0         0.000       0       0  00:00       0.00
  GWATCH_026           -nan(ind)    -nan(ind)     0     0         0.000       0       0  00:00       0.00
  GWATCH_027           -nan(ind)    -nan(ind)     0     0         0.000       0       0  00:00       0.00
  GWATCH_028           -nan(ind)    -nan(ind)     0     0         0.000       0       0  00:00       0.00
  GWATCH_029           -nan(ind)    -nan(ind)     0     0         0.000       0       0  00:00       0.00
  GWATCH_030           -nan(ind)    -nan(ind)     0     0         0.000       0       0  00:00       0.00
  GWATCH_031           -nan(ind)    -nan(ind)     0     0         0.000       0       0  00:00       0.00
  GWATCH_032           -nan(ind)    -nan(ind)     0     0         0.000       0       0  00:00       0.00
  GWATCH_033           -nan(ind)    -nan(ind)     0     0         0.000       0       0  00:00       0.00
  HOWARD_002           -nan(ind)    -nan(ind)     0     0         0.000       0       0  00:00       0.00
  HOWARD_003           -nan(ind)    -nan(ind)     0     0         0.000       0       0  00:00       0.00
  HOWARD_004           -nan(ind)    -nan(ind)     0     0         0.000       0       0  00:00       0.00
  HOWARD_005           -nan(ind)    -nan(ind)     0     0         0.000       0       0  00:00       0.00
  HOWARD_006           -nan(ind)    -nan(ind)     0     0         0.000       0       0  00:00       0.00
  HOWARD_007           -nan(ind)    -nan(ind)     0     0         0.000       0       0  00:00       0.00
  HOWARD_008           -nan(ind)    -nan(ind)     0     0         0.000       0       0  00:00       0.00
  HOWARD_009           -nan(ind)    -nan(ind)     0     0         0.000       0       0  00:00       0.00
  MUD_002              -nan(ind)    -nan(ind)     0     0         0.000       0       0  00:00       0.00
  MUD_003              -nan(ind)    -nan(ind)     0     0         0.000       0       0  00:00       0.00
  MUD_004              -nan(ind)    -nan(ind)     0     0         0.000       0       0  00:00       0.00
  MUD_005              -nan(ind)    -nan(ind)     0     0         0.000       0       0  00:00       0.00
  MUD_006              -nan(ind)    -nan(ind)     0     0         0.000       0       0  00:00       0.00
  PELTIER_002          -nan(ind)    -nan(ind)     0     0         0.000       0       0  00:00       0.00
  PELTIER_003          -nan(ind)    -nan(ind)     0     0         0.000       0       0  00:00       0.00
  PELTIER_006          -nan(ind)    -nan(ind)     0     0         0.000       0       0  00:00       0.00
  PELTIER_009          -nan(ind)    -nan(ind)     0     0         0.000       0       0  00:00       0.00
  RICE_LAKE_002        -nan(ind)    -nan(ind)     0     0         0.000       0       0  00:00       0.00
  RICE_LAKE_003        -nan(ind)    -nan(ind)     0     0         0.000       0       0  00:00       0.00
  RICE_LAKE_004        -nan(ind)    -nan(ind)     0     0         0.000       0       0  00:00       0.00
  RICE_LAKE_005        -nan(ind)    -nan(ind)     0     0         0.000       0       0  00:00       0.00
  RICE_LAKE_006        -nan(ind)    -nan(ind)     0     0         0.000       0       0  00:00       0.00
  RICE_LAKE_007        -nan(ind)    -nan(ind)     0     0         0.000       0       0  00:00       0.00
  RICE_LAKE_009        -nan(ind)    -nan(ind)     0     0         0.000       0       0  00:00       0.00
  RICE_LAKE_010        -nan(ind)    -nan(ind)     0     0         0.000       0       0  00:00       0.00
  RICE_LAKE_011        -nan(ind)    -nan(ind)     0     0         0.000       0       0  00:00       0.00
  RICE_LAKE_012        -nan(ind)    -nan(ind)     0     0         0.000       0       0  00:00       0.00
  RICE_LAKE_013        -nan(ind)    -nan(ind)     0     0         0.000       0       0  00:00       0.00
  RICE_LAKE_014        -nan(ind)    -nan(ind)     0     0         0.000       0       0  00:00       0.00
  RICE_LAKE_015        -nan(ind)    -nan(ind)     0     0         0.000       0       0  00:00       0.00
  RICE_LAKE_016        -nan(ind)    -nan(ind)     0     0         0.000       0       0  00:00       0.00
  RICE_LAKE_017        -nan(ind)    -nan(ind)     0     0         0.000       0       0  00:00       0.00
  RICE_LAKE_018        -nan(ind)    -nan(ind)     0     0         0.000       0       0  00:00       0.00
  RICE_LAKE_019        -nan(ind)    -nan(ind)     0     0         0.000       0       0  00:00       0.00
  RICE_LAKE_020        -nan(ind)    -nan(ind)     0     0         0.000       0       0  00:00       0.00
  RICE_LAKE_021        -nan(ind)    -nan(ind)     0     0         0.000       0       0  00:00       0.00
  RICE_LAKE_022        -nan(ind)    -nan(ind)     0     0         0.000       0       0  00:00       0.00
  RICE_LAKE_023        -nan(ind)    -nan(ind)     0     0         0.000       0       0  00:00       0.00
  RICE_LAKE_024        -nan(ind)    -nan(ind)     0     0         0.000       0       0  00:00       0.00
  RICE_LAKE_025        -nan(ind)    -nan(ind)     0     0         0.000       0       0  00:00       0.00
  RICE_LAKE_026        -nan(ind)    -nan(ind)     0     0         0.000       0       0  00:00       0.00
  RICE_LAKE_031        -nan(ind)    -nan(ind)     0     0         0.000       0       0  00:00       0.00
  RICE_LAKE_033        -nan(ind)    -nan(ind)     0     0         0.000       0       0  00:00       0.00
  RICE_LAKE_036        -nan(ind)    -nan(ind)     0     0         0.000       0       0  00:00       0.00
[...]
  CENTERVILLE-002         1.00   -nan(ind)  -nan(ind)  -nan(ind)  -nan(ind)  -nan(ind)  -nan(ind)  -nan(ind)  -nan(ind)  -nan(ind)
  CENTERVILLE-003         1.00   -nan(ind)  -nan(ind)  -nan(ind)  -nan(ind)  -nan(ind)  -nan(ind)  -nan(ind)  -nan(ind)  -nan(ind)
  CENTERVILLE-005         1.00   -nan(ind)  -nan(ind)  -nan(ind)  -nan(ind)  -nan(ind)  -nan(ind)  -nan(ind)  -nan(ind)  -nan(ind)
  CENTERVILLE-006         2.71   -nan(ind)  -nan(ind)  -nan(ind)  -nan(ind)  -nan(ind)  -nan(ind)  -nan(ind)  -nan(ind)  -nan(ind)
  CENTERVILLE-007         1.00   -nan(ind)  -nan(ind)  -nan(ind)  -nan(ind)  -nan(ind)  -nan(ind)  -nan(ind)  -nan(ind)  -nan(ind)
  CENTERVILLE-008         3.31   -nan(ind)  -nan(ind)  -nan(ind)  -nan(ind)  -nan(ind)  -nan(ind)  -nan(ind)  -nan(ind)  -nan(ind)
  CENTERVILLE-009         1.00   -nan(ind)  -nan(ind)  -nan(ind)  -nan(ind)  -nan(ind)  -nan(ind)  -nan(ind)  -nan(ind)  -nan(ind)
  CENTERVILLE-010         1.82   -nan(ind)  -nan(ind)  -nan(ind)  -nan(ind)  -nan(ind)  -nan(ind)  -nan(ind)  -nan(ind)  -nan(ind)
  CENTERVILLE-011         1.00   -nan(ind)  -nan(ind)  -nan(ind)  -nan(ind)  -nan(ind)  -nan(ind)  -nan(ind)  -nan(ind)  -nan(ind)
  CENTERVILLE-012         1.00   -nan(ind)  -nan(ind)  -nan(ind)  -nan(ind)  -nan(ind)  -nan(ind)  -nan(ind)  -nan(ind)  -nan(ind)
  CENTERVILLE-013         1.00   -nan(ind)  -nan(ind)  -nan(ind)  -nan(ind)  -nan(ind)  -nan(ind)  -nan(ind)  -nan(ind)  -nan(ind)
  CENTERVILLE-014         1.85   -nan(ind)  -nan(ind)  -nan(ind)  -nan(ind)  -nan(ind)  -nan(ind)  -nan(ind)  -nan(ind)  -nan(ind)
  CENTERVILLE-015         2.30   -nan(ind)  -nan(ind)  -nan(ind)  -nan(ind)  -nan(ind)  -nan(ind)  -nan(ind)  -nan(ind)  -nan(ind)
  CENTERVILLE-017         1.00   -nan(ind)  -nan(ind)  -nan(ind)  -nan(ind)  -nan(ind)  -nan(ind)  -nan(ind)  -nan(ind)  -nan(ind)
  CENTERVILLE_OUTFALL     8.53   -nan(ind)  -nan(ind)  -nan(ind)  -nan(ind)  -nan(ind)  -nan(ind)  -nan(ind)  -nan(ind)  -nan(ind)
  CLEAR-002               1.00   -nan(ind)  -nan(ind)  -nan(ind)  -nan(ind)  -nan(ind)  -nan(ind)  -nan(ind)  -nan(ind)  -nan(ind)
  CLEAR-003               1.12   -nan(ind)  -nan(ind)  -nan(ind)  -nan(ind)  -nan(ind)  -nan(ind)  -nan(ind)  -nan(ind)  -nan(ind)
  CLEAR-004               1.52   -nan(ind)  -nan(ind)  -nan(ind)  -nan(ind)  -nan(ind)  -nan(ind)  -nan(ind)  -nan(ind)  -nan(ind)
  CLEAR-005               1.52   -nan(ind)  -nan(ind)  -nan(ind)  -nan(ind)  -nan(ind)  -nan(ind)  -nan(ind)  -nan(ind)  -nan(ind)
  CLEAR-006               1.52   -nan(ind)  -nan(ind)  -nan(ind)  -nan(ind)  -nan(ind)  -nan(ind)  -nan(ind)  -nan(ind)  -nan(ind)
  CLEAR-007               1.52   -nan(ind)  -nan(ind)  -nan(ind)  -nan(ind)  -nan(ind)  -nan(ind)  -nan(ind)  -nan(ind)  -nan(ind)
  CLEAR-008               1.52   -nan(ind)  -nan(ind)  -nan(ind)  -nan(ind)  -nan(ind)  -nan(ind)  -nan(ind)  -nan(ind)  -nan(ind)
  CLEAR-009               1.15   -nan(ind)  -nan(ind)  -nan(ind)  -nan(ind)  -nan(ind)  -nan(ind)  -nan(ind)  -nan(ind)  -nan(ind)
  CLEAR-010               1.52   -nan(ind)  -nan(ind)  -nan(ind)  -nan(ind)  -nan(ind)  -nan(ind)  -nan(ind)  -nan(ind)  -nan(ind)
  CLEAR-011               1.52   -nan(ind)  -nan(ind)  -nan(ind)  -nan(ind)  -nan(ind)  -nan(ind)  -nan(ind)  -nan(ind)  -nan(ind)
  CLEAR-012               1.00   -nan(ind)  -nan(ind)  -nan(ind)  -nan(ind)  -nan(ind)  -nan(ind)  -nan(ind)  -nan(ind)  -nan(ind)
  CLEAR-013               1.52   -nan(ind)  -nan(ind)  -nan(ind)  -nan(ind)  -nan(ind)  -nan(ind)  -nan(ind)  -nan(ind)  -nan(ind)
  CLEAR-014               1.52   -nan(ind)  -nan(ind)  -nan(ind)  -nan(ind)  -nan(ind)  -nan(ind)  -nan(ind)  -nan(ind)  -nan(ind)
  CLEAR-015               1.52   -nan(ind)  -nan(ind)  -nan(ind)  -nan(ind)  -nan(ind)  -nan(ind)  -nan(ind)  -nan(ind)  -nan(ind)
  CLEAR-016               1.52   -nan(ind)  -nan(ind)  -nan(ind)  -nan(ind)  -nan(ind)  -nan(ind)  -nan(ind)  -nan(ind)  -nan(ind)
  CLEAR-017               1.52   -nan(ind)  -nan(ind)  -nan(ind)  -nan(ind)  -nan(ind)  -nan(ind)  -nan(ind)  -nan(ind)  -nan(ind)
  CLEAR-018               1.00   -nan(ind)  -nan(ind)  -nan(ind)  -nan(ind)  -nan(ind)  -nan(ind)  -nan(ind)  -nan(ind)  -nan(ind)
  CLEAR-019               1.52   -nan(ind)  -nan(ind)  -nan(ind)  -nan(ind)  -nan(ind)  -nan(ind)  -nan(ind)  -nan(ind)  -nan(ind)
  CLEAR-020               1.00   -nan(ind)  -nan(ind)  -nan(ind)  -nan(ind)  -nan(ind)  -nan(ind)  -nan(ind)  -nan(ind)  -nan(ind)
  CLEAR-021               1.52   -nan(ind)  -nan(ind)  -nan(ind)  -nan(ind)  -nan(ind)  -nan(ind)  -nan(ind)  -nan(ind)  -nan(ind)
  CLEAR-022               1.52   -nan(ind)  -nan(ind)  -nan(ind)  -nan(ind)  -nan(ind)  -nan(ind)  -nan(ind)  -nan(ind)  -nan(ind)
  CLEAR_LAKE_OUTFALL      8.77   -nan(ind)  -nan(ind)  -nan(ind)  -nan(ind)  -nan(ind)  -nan(ind)  -nan(ind)  -nan(ind)  -nan(ind)
  CROSSWAYS-002           1.36   -nan(ind)  -nan(ind)  -nan(ind)  -nan(ind)  -nan(ind)  -nan(ind)  -nan(ind)  -nan(ind)  -nan(ind)
  CROSSWAYS-003           1.00   -nan(ind)  -nan(ind)  -nan(ind)  -nan(ind)  -nan(ind)  -nan(ind)  -nan(ind)  -nan(ind)  -nan(ind)
  CROSSWAYS-004           1.52   -nan(ind)  -nan(ind)  -nan(ind)  -nan(ind)  -nan(ind)  -nan(ind)  -nan(ind)  -nan(ind)  -nan(ind)
  CROSSWAYS-005           1.52   -nan(ind)  -nan(ind)  -nan(ind)  -nan(ind)  -nan(ind)  -nan(ind)  -nan(ind)  -nan(ind)  -nan(ind)
  CROSSWAYS-006           1.52   -nan(ind)  -nan(ind)  -nan(ind)  -nan(ind)  -nan(ind)  -nan(ind)  -nan(ind)  -nan(ind)  -nan(ind)
  CROSSWAYS_LAKE_OUTFALL    8.29   -nan(ind)  -nan(ind)  -nan(ind)  -nan(ind)  -nan(ind)  -nan(ind)  -nan(ind)  -nan(ind)  -nan(ind)
  CWC_PELTIER-001         1.00   -nan(ind)  -nan(ind)  -nan(ind)  -nan(ind)  -nan(ind)  -nan(ind)  -nan(ind)  -nan(ind)  -nan(ind)
  CWC_PELTIER-007         1.00   -nan(ind)  -nan(ind)  -nan(ind)  -nan(ind)  -nan(ind)  -nan(ind)  -nan(ind)  -nan(ind)  -nan(ind)
  GEORGE_WATCH_OUTFALL    6.91   -nan(ind)  -nan(ind)  -nan(ind)  -nan(ind)  -nan(ind)  -nan(ind)  -nan(ind)  -nan(ind)  -nan(ind)
  GWATCH-002              1.07   -nan(ind)  -nan(ind)  -nan(ind)  -nan(ind)  -nan(ind)  -nan(ind)  -nan(ind)  -nan(ind)  -nan(ind)
  GWATCH-003              1.00   -nan(ind)  -nan(ind)  -nan(ind)  -nan(ind)  -nan(ind)  -nan(ind)  -nan(ind)  -nan(ind)  -nan(ind)
  GWATCH-006              1.00   -nan(ind)  -nan(ind)  -nan(ind)  -nan(ind)  -nan(ind)  -nan(ind)  -nan(ind)  -nan(ind)  -nan(ind)
  GWATCH-007              1.52   -nan(ind)  -nan(ind)  -nan(ind)  -nan(ind)  -nan(ind)  -nan(ind)  -nan(ind)  -nan(ind)  -nan(ind)
  GWATCH-008              1.52   -nan(ind)  -nan(ind)  -nan(ind)  -nan(ind)  -nan(ind)  -nan(ind)  -nan(ind)  -nan(ind)  -nan(ind)
  GWATCH-009              1.52   -nan(ind)  -nan(ind)  -nan(ind)  -nan(ind)  -nan(ind)  -nan(ind)  -nan(ind)  -nan(ind)  -nan(ind)
  GWATCH-010              2.24   -nan(ind)  -nan(ind)  -nan(ind)  -nan(ind)  -nan(ind)  -nan(ind)  -nan(ind)  -nan(ind)  -nan(ind)
  GWATCH-011              1.00   -nan(ind)  -nan(ind)  -nan(ind)  -nan(ind)  -nan(ind)  -nan(ind)  -nan(ind)  -nan(ind)  -nan(ind)
  GWATCH-012              1.52   -nan(ind)  -nan(ind)  -nan(ind)  -nan(ind)  -nan(ind)  -nan(ind)  -nan(ind)  -nan(ind)  -nan(ind)
  GWATCH-013              1.00   -nan(ind)  -nan(ind)  -nan(ind)  -nan(ind)  -nan(ind)  -nan(ind)  -nan(ind)  -nan(ind)  -nan(ind)
  GWATCH-014              1.54   -nan(ind)  -nan(ind)  -nan(ind)  -nan(ind)  -nan(ind)  -nan(ind)  -nan(ind)  -nan(ind)  -nan(ind)
  GWATCH-016              1.52   -nan(ind)  -nan(ind)  -nan(ind)  -nan(ind)  -nan(ind)  -nan(ind)  -nan(ind)  -nan(ind)  -nan(ind)
  GWATCH-018              1.00   -nan(ind)  -nan(ind)  -nan(ind)  -nan(ind)  -nan(ind)  -nan(ind)  -nan(ind)  -nan(ind)  -nan(ind)
  GWATCH-019              1.24   -nan(ind)  -nan(ind)  -nan(ind)  -nan(ind)  -nan(ind)  -nan(ind)  -nan(ind)  -nan(ind)  -nan(ind)
  GWATCH-020              1.00   -nan(ind)  -nan(ind)  -nan(ind)  -nan(ind)  -nan(ind)  -nan(ind)  -nan(ind)  -nan(ind)  -nan(ind)
  GWATCH-022              1.16   -nan(ind)  -nan(ind)  -nan(ind)  -nan(ind)  -nan(ind)  -nan(ind)  -nan(ind)  -nan(ind)  -nan(ind)
  GWATCH-023              1.52   -nan(ind)  -nan(ind)  -nan(ind)  -nan(ind)  -nan(ind)  -nan(ind)  -nan(ind)  -nan(ind)  -nan(ind)
  GWATCH-024              1.52   -nan(ind)  -nan(ind)  -nan(ind)  -nan(ind)  -nan(ind)  -nan(ind)  -nan(ind)  -nan(ind)  -nan(ind)
  GWATCH-025              2.41   -nan(ind)  -nan(ind)  -nan(ind)  -nan(ind)  -nan(ind)  -nan(ind)  -nan(ind)  -nan(ind)  -nan(ind)
  GWATCH-026              1.00   -nan(ind)  -nan(ind)  -nan(ind)  -nan(ind)  -nan(ind)  -nan(ind)  -nan(ind)  -nan(ind)  -nan(ind)
  GWATCH-027              1.00   -nan(ind)  -nan(ind)  -nan(ind)  -nan(ind)  -nan(ind)  -nan(ind)  -nan(ind)  -nan(ind)  -nan(ind)
  GWATCH-028              1.52   -nan(ind)  -nan(ind)  -nan(ind)  -nan(ind)  -nan(ind)  -nan(ind)  -nan(ind)  -nan(ind)  -nan(ind)
  GWATCH-029              1.52   -nan(ind)  -nan(ind)  -nan(ind)  -nan(ind)  -nan(ind)  -nan(ind)  -nan(ind)  -nan(ind)  -nan(ind)
  GWATCH-030              1.00   -nan(ind)  -nan(ind)  -nan(ind)  -nan(ind)  -nan(ind)  -nan(ind)  -nan(ind)  -nan(ind)  -nan(ind)
  GWATCH-032              1.00   -nan(ind)  -nan(ind)  -nan(ind)  -nan(ind)  -nan(ind)  -nan(ind)  -nan(ind)  -nan(ind)  -nan(ind)
  GWATCH-033              1.00   -nan(ind)  -nan(ind)  -nan(ind)  -nan(ind)  -nan(ind)  -nan(ind)  -nan(ind)  -nan(ind)  -nan(ind)
  HOWARD-002              1.52   -nan(ind)  -nan(ind)  -nan(ind)  -nan(ind)  -nan(ind)  -nan(ind)  -nan(ind)  -nan(ind)  -nan(ind)
  HOWARD-003              1.52   -nan(ind)  -nan(ind)  -nan(ind)  -nan(ind)  -nan(ind)  -nan(ind)  -nan(ind)  -nan(ind)  -nan(ind)
  HOWARD-004              1.52   -nan(ind)  -nan(ind)  -nan(ind)  -nan(ind)  -nan(ind)  -nan(ind)  -nan(ind)  -nan(ind)  -nan(ind)
  HOWARD-005              1.52   -nan(ind)  -nan(ind)  -nan(ind)  -nan(ind)  -nan(ind)  -nan(ind)  -nan(ind)  -nan(ind)  -nan(ind)
  HOWARD-006              1.52   -nan(ind)  -nan(ind)  -nan(ind)  -nan(ind)  -nan(ind)  -nan(ind)  -nan(ind)  -nan(ind)  -nan(ind)
  HOWARD-007              1.00   -nan(ind)  -nan(ind)  -nan(ind)  -nan(ind)  -nan(ind)  -nan(ind)  -nan(ind)  -nan(ind)  -nan(ind)
  HOWARD-008              1.52   -nan(ind)  -nan(ind)  -nan(ind)  -nan(ind)  -nan(ind)  -nan(ind)  -nan(ind)  -nan(ind)  -nan(ind)
  HOWARD-009              1.52   -nan(ind)  -nan(ind)  -nan(ind)  -nan(ind)  -nan(ind)  -nan(ind)  -nan(ind)  -nan(ind)  -nan(ind)
  HOWARD_LAKE_OUTFALL     8.53   -nan(ind)  -nan(ind)  -nan(ind)  -nan(ind)  -nan(ind)  -nan(ind)  -nan(ind)  -nan(ind)  -nan(ind)
  L_PELTIER_002           1.00   -nan(ind)  -nan(ind)  -nan(ind)  -nan(ind)  -nan(ind)  -nan(ind)  -nan(ind)  -nan(ind)  -nan(ind)
  L_PELTIER_003           1.00   -nan(ind)  -nan(ind)  -nan(ind)  -nan(ind)  -nan(ind)  -nan(ind)  -nan(ind)  -nan(ind)  -nan(ind)
  L_PELTIER_004           1.00   -nan(ind)  -nan(ind)  -nan(ind)  -nan(ind)  -nan(ind)  -nan(ind)  -nan(ind)  -nan(ind)  -nan(ind)
  L_PELTIER_005           1.00   -nan(ind)  -nan(ind)  -nan(ind)  -nan(ind)  -nan(ind)  -nan(ind)  -nan(ind)  -nan(ind)  -nan(ind)
  L_PELTIER_006           1.00   -nan(ind)  -nan(ind)  -nan(ind)  -nan(ind)  -nan(ind)  -nan(ind)  -nan(ind)  -nan(ind)  -nan(ind)
  L_PELTIER_008           1.52   -nan(ind)  -nan(ind)  -nan(ind)  -nan(ind)  -nan(ind)  -nan(ind)  -nan(ind)  -nan(ind)  -nan(ind)
  L_URC_MT_002            1.23   -nan(ind)  -nan(ind)  -nan(ind)  -nan(ind)  -nan(ind)  -nan(ind)  -nan(ind)  -nan(ind)  -nan(ind)
  L_URC_MT_006            1.52   -nan(ind)  -nan(ind)  -nan(ind)  -nan(ind)  -nan(ind)  -nan(ind)  -nan(ind)  -nan(ind)  -nan(ind)
  L_URC_MT_007            1.00   -nan(ind)  -nan(ind)  -nan(ind)  -nan(ind)  -nan(ind)  -nan(ind)  -nan(ind)  -nan(ind)  -nan(ind)
  L_URC_MT_008            1.52   -nan(ind)  -nan(ind)  -nan(ind)  -nan(ind)  -nan(ind)  -nan(ind)  -nan(ind)  -nan(ind)  -nan(ind)
  MARSHAN_OUTFALL         5.96   -nan(ind)  -nan(ind)  -nan(ind)  -nan(ind)  -nan(ind)  -nan(ind)  -nan(ind)  -nan(ind)  -nan(ind)
  MUD-002                 1.52   -nan(ind)  -nan(ind)  -nan(ind)  -nan(ind)  -nan(ind)  -nan(ind)  -nan(ind)  -nan(ind)  -nan(ind)
  MUD-003                 1.52   -nan(ind)  -nan(ind)  -nan(ind)  -nan(ind)  -nan(ind)  -nan(ind)  -nan(ind)  -nan(ind)  -nan(ind)
  MUD-004                 1.52   -nan(ind)  -nan(ind)  -nan(ind)  -nan(ind)  -nan(ind)  -nan(ind)  -nan(ind)  -nan(ind)  -nan(ind)
  MUD-005                 1.52   -nan(ind)  -nan(ind)  -nan(ind)  -nan(ind)  -nan(ind)  -nan(ind)  -nan(ind)  -nan(ind)  -nan(ind)
  MUD-006                 1.52   -nan(ind)  -nan(ind)  -nan(ind)  -nan(ind)  -nan(ind)  -nan(ind)  -nan(ind)  -nan(ind)  -nan(ind)
  MUD_LAKE_OUTFALL        8.65   -nan(ind)  -nan(ind)  -nan(ind)  -nan(ind)  -nan(ind)  -nan(ind)  -nan(ind)  -nan(ind)  -nan(ind)
  PELTIER-002             1.52   -nan(ind)  -nan(ind)  -nan(ind)  -nan(ind)  -nan(ind)  -nan(ind)  -nan(ind)  -nan(ind)  -nan(ind)
  PELTIER-003             1.00   -nan(ind)  -nan(ind)  -nan(ind)  -nan(ind)  -nan(ind)  -nan(ind)  -nan(ind)  -nan(ind)  -nan(ind)
  PELTIER-006             1.39   -nan(ind)  -nan(ind)  -nan(ind)  -nan(ind)  -nan(ind)  -nan(ind)  -nan(ind)  -nan(ind)  -nan(ind)
  PELTIER-009             1.00   -nan(ind)  -nan(ind)  -nan(ind)  -nan(ind)  -nan(ind)  -nan(ind)  -nan(ind)  -nan(ind)  -nan(ind)
  PELTIER_LAKE_OUTFALL    7.78   -nan(ind)  -nan(ind)  -nan(ind)  -nan(ind)  -nan(ind)  -nan(ind)  -nan(ind)  -nan(ind)  -nan(ind)
  RICE_LAKE-002           1.00   -nan(ind)  -nan(ind)  -nan(ind)  -nan(ind)  -nan(ind)  -nan(ind)  -nan(ind)  -nan(ind)  -nan(ind)
  RICE_LAKE-003           1.00   -nan(ind)  -nan(ind)  -nan(ind)  -nan(ind)  -nan(ind)  -nan(ind)  -nan(ind)  -nan(ind)  -nan(ind)
  RICE_LAKE-004           1.00   -nan(ind)  -nan(ind)  -nan(ind)  -nan(ind)  -nan(ind)  -nan(ind)  -nan(ind)  -nan(ind)  -nan(ind)
  RICE_LAKE-005           1.00   -nan(ind)  -nan(ind)  -nan(ind)  -nan(ind)  -nan(ind)  -nan(ind)  -nan(ind)  -nan(ind)  -nan(ind)
  RICE_LAKE-007           1.00   -nan(ind)  -nan(ind)  -nan(ind)  -nan(ind)  -nan(ind)  -nan(ind)  -nan(ind)  -nan(ind)  -nan(ind)
  RICE_LAKE-009           1.00   -nan(ind)  -nan(ind)  -nan(ind)  -nan(ind)  -nan(ind)  -nan(ind)  -nan(ind)  -nan(ind)  -nan(ind)
  RICE_LAKE-010           1.52   -nan(ind)  -nan(ind)  -nan(ind)  -nan(ind)  -nan(ind)  -nan(ind)  -nan(ind)  -nan(ind)  -nan(ind)
  RICE_LAKE-011           1.52   -nan(ind)  -nan(ind)  -nan(ind)  -nan(ind)  -nan(ind)  -nan(ind)  -nan(ind)  -nan(ind)  -nan(ind)
  RICE_LAKE-012           1.00   -nan(ind)  -nan(ind)  -nan(ind)  -nan(ind)  -nan(ind)  -nan(ind)  -nan(ind)  -nan(ind)  -nan(ind)
  RICE_LAKE-013           1.16   -nan(ind)  -nan(ind)  -nan(ind)  -nan(ind)  -nan(ind)  -nan(ind)  -nan(ind)  -nan(ind)  -nan(ind)
  RICE_LAKE-014           1.00   -nan(ind)  -nan(ind)  -nan(ind)  -nan(ind)  -nan(ind)  -nan(ind)  -nan(ind)  -nan(ind)  -nan(ind)
  RICE_LAKE-015           1.00   -nan(ind)  -nan(ind)  -nan(ind)  -nan(ind)  -nan(ind)  -nan(ind)  -nan(ind)  -nan(ind)  -nan(ind)
  RICE_LAKE-016           1.93   -nan(ind)  -nan(ind)  -nan(ind)  -nan(ind)  -nan(ind)  -nan(ind)  -nan(ind)  -nan(ind)  -nan(ind)
  RICE_LAKE-017           1.00   -nan(ind)  -nan(ind)  -nan(ind)  -nan(ind)  -nan(ind)  -nan(ind)  -nan(ind)  -nan(ind)  -nan(ind)
  RICE_LAKE-018           4.82   -nan(ind)  -nan(ind)  -nan(ind)  -nan(ind)  -nan(ind)  -nan(ind)  -nan(ind)  -nan(ind)  -nan(ind)
  RICE_LAKE-019           1.00   -nan(ind)  -nan(ind)  -nan(ind)  -nan(ind)  -nan(ind)  -nan(ind)  -nan(ind)  -nan(ind)  -nan(ind)
  RICE_LAKE-020           1.00   -nan(ind)  -nan(ind)  -nan(ind)  -nan(ind)  -nan(ind)  -nan(ind)  -nan(ind)  -nan(ind)  -nan(ind)
  RICE_LAKE-021           1.00   -nan(ind)  -nan(ind)  -nan(ind)  -nan(ind)  -nan(ind)  -nan(ind)  -nan(ind)  -nan(ind)  -nan(ind)
  RICE_LAKE-022           1.00   -nan(ind)  -nan(ind)  -nan(ind)  -nan(ind)  -nan(ind)  -nan(ind)  -nan(ind)  -nan(ind)  -nan(ind)
  RICE_LAKE-023           1.00   -nan(ind)  -nan(ind)  -nan(ind)  -nan(ind)  -nan(ind)  -nan(ind)  -nan(ind)  -nan(ind)  -nan(ind)
  RICE_LAKE-024           1.00   -nan(ind)  -nan(ind)  -nan(ind)  -nan(ind)  -nan(ind)  -nan(ind)  -nan(ind)  -nan(ind)  -nan(ind)
  RICE_LAKE-025           1.00   -nan(ind)  -nan(ind)  -nan(ind)  -nan(ind)  -nan(ind)  -nan(ind)  -nan(ind)  -nan(ind)  -nan(ind)
  RICE_LAKE-026           1.00   -nan(ind)  -nan(ind)  -nan(ind)  -nan(ind)  -nan(ind)  -nan(ind)  -nan(ind)  -nan(ind)  -nan(ind)
  RICE_LAKE-031           1.00   -nan(ind)  -nan(ind)  -nan(ind)  -nan(ind)  -nan(ind)  -nan(ind)  -nan(ind)  -nan(ind)  -nan(ind)
  RICE_LAKE-032           1.00   -nan(ind)  -nan(ind)  -nan(ind)  -nan(ind)  -nan(ind)  -nan(ind)  -nan(ind)  -nan(ind)  -nan(ind)
  RICE_LAKE-033           1.00   -nan(ind)  -nan(ind)  -nan(ind)  -nan(ind)  -nan(ind)  -nan(ind)  -nan(ind)  -nan(ind)  -nan(ind)
  RICE_LAKE-035           1.00   -nan(ind)  -nan(ind)  -nan(ind)  -nan(ind)  -nan(ind)  -nan(ind)  -nan(ind)  -nan(ind)  -nan(ind)
  RICE_LAKE-036           1.52   -nan(ind)  -nan(ind)  -nan(ind)  -nan(ind)  -nan(ind)  -nan(ind)  -nan(ind)  -nan(ind)  -nan(ind)
  RICE_LAKE-037           1.00   -nan(ind)  -nan(ind)  -nan(ind)  -nan(ind)  -nan(ind)  -nan(ind)  -nan(ind)  -nan(ind)  -nan(ind)
  RICE_LAKE-038           1.00   -nan(ind)  -nan(ind)  -nan(ind)  -nan(ind)  -nan(ind)  -nan(ind)  -nan(ind)  -nan(ind)  -nan(ind)
  RICE_LAKE-039           1.00   -nan(ind)  -nan(ind)  -nan(ind)  -nan(ind)  -nan(ind)  -nan(ind)  -nan(ind)  -nan(ind)  -nan(ind)
  RICE_LAKE_OUTFALL       6.65   -nan(ind)  -nan(ind)  -nan(ind)  -nan(ind)  -nan(ind)  -nan(ind)  -nan(ind)  -nan(ind)  -nan(ind)
  RONDEAU-003             1.06   -nan(ind)  -nan(ind)  -nan(ind)  -nan(ind)  -nan(ind)  -nan(ind)  -nan(ind)  -nan(ind)  -nan(ind)
  RONDEAU-004             1.41   -nan(ind)  -nan(ind)  -nan(ind)  -nan(ind)  -nan(ind)  -nan(ind)  -nan(ind)  -nan(ind)  -nan(ind)
  RONDEAU-005             1.00   -nan(ind)  -nan(ind)  -nan(ind)  -nan(ind)  -nan(ind)  -nan(ind)  -nan(ind)  -nan(ind)  -nan(ind)
  RONDEAU-006             1.52   -nan(ind)  -nan(ind)  -nan(ind)  -nan(ind)  -nan(ind)  -nan(ind)  -nan(ind)  -nan(ind)  -nan(ind)
  RONDEAU-007             1.00   -nan(ind)  -nan(ind)  -nan(ind)  -nan(ind)  -nan(ind)  -nan(ind)  -nan(ind)  -nan(ind)  -nan(ind)
  RONDEAU-008             1.00   -nan(ind)  -nan(ind)  -nan(ind)  -nan(ind)  -nan(ind)  -nan(ind)  -nan(ind)  -nan(ind)  -nan(ind)
  RONDEAU-009             1.00   -nan(ind)  -nan(ind)  -nan(ind)  -nan(ind)  -nan(ind)  -nan(ind)  -nan(ind)  -nan(ind)  -nan(ind)
  RONDEAU-010             1.00   -nan(ind)  -nan(ind)  -nan(ind)  -nan(ind)  -nan(ind)  -nan(ind)  -nan(ind)  -nan(ind)  -nan(ind)
  RONDEAU-011             2.84   -nan(ind)  -nan(ind)  -nan(ind)  -nan(ind)  -nan(ind)  -nan(ind)  -nan(ind)  -nan(ind)  -nan(ind)
  RONDEAU-012             1.00   -nan(ind)  -nan(ind)  -nan(ind)  -nan(ind)  -nan(ind)  -nan(ind)  -nan(ind)  -nan(ind)  -nan(ind)
  RONDEAU-013             1.52   -nan(ind)  -nan(ind)  -nan(ind)  -nan(ind)  -nan(ind)  -nan(ind)  -nan(ind)  -nan(ind)  -nan(ind)
  RONDEAU-014             1.52   -nan(ind)  -nan(ind)  -nan(ind)  -nan(ind)  -nan(ind)  -nan(ind)  -nan(ind)  -nan(ind)  -nan(ind)
  RONDEAU_LAKE_OUTFALL    7.70   -nan(ind)  -nan(ind)  -nan(ind)  -nan(ind)  -nan(ind)  -nan(ind)  -nan(ind)  -nan(ind)  -nan(ind)
  UPPER_RICE_OUTFALL      9.23   -nan(ind)  -nan(ind)  -nan(ind)  -nan(ind)  -nan(ind)  -nan(ind)  -nan(ind)  -nan(ind)  -nan(ind)
  URC_MT_OF-002           1.00   -nan(ind)  -nan(ind)  -nan(ind)  -nan(ind)  -nan(ind)  -nan(ind)  -nan(ind)  -nan(ind)  -nan(ind)
  
  
  *************************
  Conduit Surcharge Summary
  *************************
  
  No conduits were surcharged.
  

  Analysis begun on:  Sat Nov 30 08:10:20 2019
  Analysis ended on:  Sat Nov 30 08:10:21 2019
  Total elapsed time: 00:00:01