
  EPA STORM WATER MANAGEMENT MODEL - VERSION 5.1 (Build 5.1.013)
  --------------------------------------------------------------

  INP file created on 2018/7/3 14:32:30 by thinkpad with inpPINS version 0.0.3.0 
  Title/Notes: 
  
  WARNING 04: minimum elevation drop used for Conduit C109
  WARNING 04: minimum elevation drop used for Conduit C124
  WARNING 04: minimum elevation drop used for Conduit C138
  WARNING 04: minimum elevation drop used for Conduit C154
  WARNING 04: minimum elevation drop used for Conduit C155
  WARNING 04: minimum elevation drop used for Conduit C161
  WARNING 04: minimum elevation drop used for Conduit C173
  WARNING 04: minimum elevation drop used for Conduit C198
  WARNING 04: minimum elevation drop used for Conduit C199
  WARNING 04: minimum elevation drop used for Conduit C211
  WARNING 04: minimum elevation drop used for Conduit C215
  WARNING 04: minimum elevation drop used for Conduit C216
  WARNING 04: minimum elevation drop used for Conduit C217
  WARNING 04: minimum elevation drop used for Conduit C218
  WARNING 04: minimum elevation drop used for Conduit C229
  WARNING 04: minimum elevation drop used for Conduit C231
  WARNING 04: minimum elevation drop used for Conduit C238
  WARNING 04: minimum elevation drop used for Conduit C245
  WARNING 04: minimum elevation drop used for Conduit C250
  WARNING 04: minimum elevation drop used for Conduit C259
  WARNING 04: minimum elevation drop used for Conduit C260
  WARNING 04: minimum elevation drop used for Conduit C263
  WARNING 04: minimum elevation drop used for Conduit C281
  WARNING 04: minimum elevation drop used for Conduit C283
  WARNING 04: minimum elevation drop used for Conduit C302
  WARNING 04: minimum elevation drop used for Conduit C304
  WARNING 04: minimum elevation drop used for Conduit C305
  WARNING 04: minimum elevation drop used for Conduit C306
  WARNING 04: minimum elevation drop used for Conduit C309
  WARNING 04: minimum elevation drop used for Conduit C31
  WARNING 04: minimum elevation drop used for Conduit C354
  WARNING 04: minimum elevation drop used for Conduit C377
  WARNING 04: minimum elevation drop used for Conduit C380
  WARNING 08: elevation drop exceeds length for Conduit C39
  WARNING 04: minimum elevation drop used for Conduit C409
  WARNING 04: minimum elevation drop used for Conduit C410
  WARNING 04: minimum elevation drop used for Conduit C411
  WARNING 04: minimum elevation drop used for Conduit C430
  WARNING 04: minimum elevation drop used for Conduit C431
  WARNING 04: minimum elevation drop used for Conduit C440
  WARNING 04: minimum elevation drop used for Conduit C441
  WARNING 04: minimum elevation drop used for Conduit C444
  WARNING 04: minimum elevation drop used for Conduit C475
  WARNING 04: minimum elevation drop used for Conduit C519
  WARNING 04: minimum elevation drop used for Conduit C558
  WARNING 04: minimum elevation drop used for Conduit C571
  WARNING 04: minimum elevation drop used for Conduit C574
  WARNING 04: minimum elevation drop used for Conduit C587
  WARNING 04: minimum elevation drop used for Conduit C59
  WARNING 04: minimum elevation drop used for Conduit C632
  WARNING 04: minimum elevation drop used for Conduit C647
  WARNING 04: minimum elevation drop used for Conduit C654
  WARNING 04: minimum elevation drop used for Conduit C669
  WARNING 08: elevation drop exceeds length for Conduit C672
  WARNING 04: minimum elevation drop used for Conduit C682
  WARNING 04: minimum elevation drop used for Conduit C683
  WARNING 04: minimum elevation drop used for Conduit C686
  WARNING 04: minimum elevation drop used for Conduit C702
  WARNING 04: minimum elevation drop used for Conduit C706
  WARNING 04: minimum elevation drop used for Conduit C707
  WARNING 04: minimum elevation drop used for Conduit C708
  WARNING 04: minimum elevation drop used for Conduit C733
  WARNING 04: minimum elevation drop used for Conduit C734
  WARNING 04: minimum elevation drop used for Conduit C735
  WARNING 04: minimum elevation drop used for Conduit C736
  WARNING 04: minimum elevation drop used for Conduit C737
  WARNING 04: minimum elevation drop used for Conduit C738
  WARNING 04: minimum elevation drop used for Conduit C741
  WARNING 04: minimum elevation drop used for Conduit C742
  WARNING 04: minimum elevation drop used for Conduit C745
  WARNING 04: minimum elevation drop used for Conduit C76
  WARNING 04: minimum elevation drop used for Conduit C90
  WARNING 04: minimum elevation drop used for Conduit C91
  WARNING 04: minimum elevation drop used for Conduit C93
  WARNING 04: minimum elevation drop used for Conduit C750
  WARNING 04: minimum elevation drop used for Conduit C751
  WARNING 04: minimum elevation drop used for Conduit C752
  WARNING 02: maximum depth increased for Node N313
  WARNING 02: maximum depth increased for Node N314
  WARNING 02: maximum depth increased for Node N958
  
  *********************************************************
  NOTE: The summary statistics displayed in this report are
  based on results found at every computational time step,  
  not just on results from each reporting time step.
  *********************************************************
  
  ****************
  Analysis Options
  ****************
  Flow Units ............... CMS
  Process Models:
    Rainfall/Runoff ........ YES
    RDII ................... NO
    Snowmelt ............... NO
    Groundwater ............ NO
    Flow Routing ........... YES
    Ponding Allowed ........ NO
    Water Quality .......... NO
  Infiltration Method ...... MODIFIED_GREEN_AMPT
  Flow Routing Method ...... DYNWAVE
  Surcharge Method ......... EXTRAN
  Starting Date ............ 07/03/2018 07:45:00
  Ending Date .............. 07/03/2018 11:00:00
  Antecedent Dry Days ...... 0.0
  Report Time Step ......... 00:01:00
  Wet Time Step ............ 00:05:00
  Dry Time Step ............ 01:00:00
  Routing Time Step ........ 10.00 sec
  Variable Time Step ....... YES
  Maximum Trials ........... 8
  Number of Threads ........ 1
  Head Tolerance ........... 0.005000 m
  
  
  **************************        Volume         Depth
  Runoff Quantity Continuity     hectare-m            mm
  **************************     ---------       -------
  Total Precipitation ......        25.542       192.650
  Evaporation Loss .........         0.000         0.000
  Infiltration Loss ........         2.123        16.009
  Surface Runoff ...........        23.076       174.049
  Final Storage ............         0.431         3.248
  Continuity Error (%) .....        -0.340
  
  
  **************************        Volume        Volume
  Flow Routing Continuity        hectare-m      10^6 ltr
  **************************     ---------     ---------
  Dry Weather Inflow .......         0.000         0.000
  Wet Weather Inflow .......        23.056       230.562
  Groundwater Inflow .......         0.000         0.000
  RDII Inflow ..............         0.000         0.000
  External Inflow ..........         0.000         0.000
  External Outflow .........        22.135       221.350
  Flooding Loss ............         0.502         5.024
  Evaporation Loss .........         0.000         0.000
  Exfiltration Loss ........         0.000         0.000
  Initial Stored Volume ....         0.000         0.000
  Final Stored Volume ......         0.310         3.098
  Continuity Error (%) .....         0.473
  
  
  *************************
  Highest Continuity Errors
  *************************
  Node N38 (100.00%)
  Node N435 (100.00%)
  Node N793 (94.91%)
  Node N876 (73.30%)
  Node N448 (53.94%)
  
  
  ***************************
  Time-Step Critical Elements
  ***************************
  Link C91 (10.12%)
  Link C198 (7.47%)
  Link C669 (6.64%)
  Link C263 (6.00%)
  Link C668 (4.34%)
  
  
  ********************************
  Highest Flow Instability Indexes
  ********************************
  Link C571 (110)
  Link C541 (102)
  Link C505 (100)
  Link C706 (91)
  Link C488 (84)
  
  
  *************************
  Routing Time Step Summary
  *************************
  Minimum Time Step           :     0.50 sec
  Average Time Step           :     1.90 sec
  Maximum Time Step           :    10.00 sec
  Percent in Steady State     :     0.00
  Average Iterations per Step :     6.99
  Percent Not Converging      :    71.99
  
  
  ***************************
  Subcatchment Runoff Summary
  ***************************
  
  ------------------------------------------------------------------------------------------------------------------------------
                            Total      Total      Total      Total     Imperv       Perv      Total       Total     Peak  Runoff
                           Precip      Runon       Evap      Infil     Runoff     Runoff     Runoff      Runoff   Runoff   Coeff
  Subcatchment                 mm         mm         mm         mm         mm         mm         mm    10^6 ltr      CMS
  ------------------------------------------------------------------------------------------------------------------------------
  S1                       192.65       0.00       0.00      15.82       1.73     172.97     174.71       11.59     3.88   0.907
  S2                       192.65       0.00       0.00      17.84       1.77     168.24     170.01       22.44     6.52   0.883
  S3                       192.65       0.00       0.00      18.31       1.76     167.01     168.77       19.82     5.58   0.876
  S4                       192.65       0.00       0.00      17.51       1.81     169.03     170.84       25.04     7.44   0.887
  S5                       192.65       0.00       0.00      15.34       1.86     173.80     175.66        4.67     1.62   0.912
  S6                       192.65       0.00       0.00      15.10       1.93     174.20     176.13        4.46     1.57   0.914
  S7                       192.65       0.00       0.00      13.79       1.70     176.84     178.54        4.47     1.74   0.927
  S8                       192.65       0.00       0.00      14.91       1.64     174.89     176.52        4.15     1.49   0.916
  S9                       192.65       0.00       0.00      16.37       1.93     171.57     173.49        6.61     2.13   0.901
  S10                      192.65       0.00       0.00      14.13       1.93     176.01     177.93        3.27     1.24   0.924
  S11                      192.65       0.00       0.00      13.68       1.93     176.79     178.72        2.15     0.84   0.928
  S12                      192.65       0.00       0.00      14.03       1.93     176.18     178.10        2.76     1.06   0.924
  S13                      192.65       0.00       0.00      12.90       1.93     178.06     179.99        1.57     0.65   0.934
  S14                      192.65       0.00       0.00      13.76       1.81     176.78     178.59        3.16     1.24   0.927
  S15                      192.65       0.00       0.00      13.93       1.77     176.52     178.30        2.43     0.94   0.925
  S16                      192.65       0.00       0.00      14.67       1.43     175.55     176.98        3.29     1.20   0.919
  S17                      192.65       0.00       0.00      13.74       1.93     176.68     178.61        1.87     0.73   0.927
  S18                      192.65       0.00       0.00      14.48       1.72     175.59     177.31        3.50     1.29   0.920
  S19                      192.65       0.00       0.00      14.12       1.93     176.03     177.96        2.05     0.78   0.924
  S20                      192.65       0.00       0.00      14.15       1.93     175.97     177.90        1.91     0.72   0.923
  S21                      192.65       0.00       0.00      13.86       1.83     176.57     178.41        2.53     0.98   0.926
  S22                      192.65       0.00       0.00      13.24       1.93     177.53     179.45        1.19     0.48   0.932
  S23                      192.65       0.00       0.00      13.38       1.93     177.29     179.21        2.19     0.88   0.930
  S24                      192.65       0.00       0.00      15.57       1.93     173.28     175.20        1.45     0.49   0.909
  S25                      192.65       0.00       0.00      14.52       1.93     175.29     177.22        1.62     0.60   0.920
  S26                      192.65       0.00       0.00      13.46       1.82     177.28     179.10        2.33     0.93   0.930
  S27                      192.65       0.00       0.00      13.81       1.93     176.57     178.50        1.41     0.55   0.927
  S28                      192.65       0.00       0.00      13.40       1.93     177.26     179.18        1.63     0.65   0.930
  S29                      192.65       0.00       0.00      13.16       1.93     177.66     179.59        2.11     0.86   0.932
  S30                      192.65       0.00       0.00      13.41       1.93     177.25     179.18        1.48     0.59   0.930
  S31                      192.65       0.00       0.00      14.13       1.93     176.01     177.94        1.64     0.62   0.924
  S32                      192.65       0.00       0.00      15.51       1.93     173.39     175.31        6.40     2.19   0.910
  S33                      192.65       0.00       0.00      17.24       1.44     170.11     171.56        8.93     2.71   0.891
  S34                      192.65       0.00       0.00      16.49       1.25     172.05     173.30        5.93     1.90   0.900
  S36                      192.65       0.00       0.00      16.53       1.93     171.23     173.16        6.77     2.15   0.899
  S37                      192.65       0.00       0.00      15.46       1.85     173.59     175.43        5.90     2.03   0.911
  S38                      192.65       0.00       0.00      15.44       1.49     174.00     175.49        3.33     1.15   0.911
  S39                      192.65       0.00       0.00      15.24       1.93     173.92     175.85        4.32     1.51   0.913
  S40                      192.65       0.00       0.00      15.40       1.93     173.62     175.55        6.73     2.32   0.911
  S41                      192.65       0.00       0.00      15.86       1.93     172.66     174.59        5.32     1.77   0.906
  S42                      192.65       0.00       0.00      15.21       1.93     174.00     175.93        3.17     1.11   0.913
  S43                      192.65       0.00       0.00      15.84       1.78     172.87     174.65        9.81     3.28   0.907
  S44                      192.65       0.00       0.00      13.70       1.69     177.01     178.69        4.01     1.57   0.928
  S35                      192.65       0.00       0.00      16.52       1.70     171.49     173.19        5.66     1.80   0.899
  S45                      192.65       0.00       0.00      15.74       1.70     173.17     174.87        3.71     1.25   0.908
  
  
  ******************
  Node Depth Summary
  ******************
  
  ---------------------------------------------------------------------------------
                                 Average  Maximum  Maximum  Time of Max    Reported
                                   Depth    Depth      HGL   Occurrence   Max Depth
  Node                 Type       Meters   Meters   Meters  days hr:min      Meters
  ---------------------------------------------------------------------------------
  N1                   JUNCTION     0.00     0.00    10.40     0  00:00        0.00
  N10                  JUNCTION     0.00     0.00    12.90     0  00:00        0.00
  N100                 JUNCTION     0.47     2.20     4.20     0  01:17        1.90
  N101                 JUNCTION     0.00     0.00     7.60     0  00:00        0.00
  N102                 JUNCTION     0.00     0.00     8.40     0  00:00        0.00
  N103                 JUNCTION     0.00     0.00     9.00     0  00:00        0.00
  N104                 JUNCTION     0.00     0.00    16.40     0  00:00        0.00
  N108                 JUNCTION     0.00     0.00    13.50     0  00:00        0.00
  N109                 JUNCTION     0.00     0.00    19.60     0  00:00        0.00
  N11                  JUNCTION     0.00     0.00    15.50     0  00:00        0.00
  N110                 JUNCTION     0.00     0.00    29.10     0  00:00        0.00
  N111                 JUNCTION     1.12     2.20     2.70     0  01:16        2.20
  N112                 JUNCTION     0.84     2.20     2.70     0  01:16        1.38
  N113                 JUNCTION     0.45     0.85     1.25     0  01:20        0.84
  N114                 JUNCTION     1.12     1.56     0.36     0  01:21        1.55
  N117                 JUNCTION     2.86     3.41     0.41     0  01:20        3.39
  N118                 JUNCTION     1.40     1.85     0.35     0  01:21        1.85
  N119                 JUNCTION     0.33     0.53    -0.07     0  01:20        0.52
  N12                  JUNCTION     0.00     0.00    20.80     0  00:00        0.00
  N120                 JUNCTION     0.29     0.47    -0.83     0  01:20        0.47
  N128                 JUNCTION     0.62     1.01    -1.49     0  01:21        1.00
  N129                 JUNCTION     0.10     0.16     1.31     0  01:21        0.16
  N130                 JUNCTION     0.19     0.29     1.74     0  01:20        0.29
  N131                 JUNCTION     0.10     0.15     4.05     0  01:20        0.15
  N132                 JUNCTION     0.10     0.15     6.35     0  01:17        0.15
  N133                 JUNCTION     0.13     0.21     9.21     0  01:19        0.21
  N134                 JUNCTION     0.09     0.13    23.33     0  01:19        0.13
  N135                 JUNCTION     0.00     0.00    16.40     0  00:00        0.00
  N136                 JUNCTION     0.00     0.00    16.60     0  00:00        0.00
  N137                 JUNCTION     0.03     0.38    16.38     0  01:21        0.38
  N14                  JUNCTION     0.00     0.00    18.20     0  00:00        0.00
  N140                 JUNCTION     0.00     0.00    16.60     0  00:00        0.00
  N141                 JUNCTION     0.00     0.00    16.60     0  00:00        0.00
  N142                 JUNCTION     0.00     0.00    23.90     0  00:00        0.00
  N143                 JUNCTION     0.00     0.00    23.20     0  00:00        0.00
  N144                 JUNCTION     0.00     0.00    22.50     0  00:00        0.00
  N15                  JUNCTION     1.17     3.00     6.30     0  01:20        1.91
  N156                 JUNCTION     0.00     0.00    21.10     0  00:00        0.00
  N157                 JUNCTION     0.00     0.00    22.30     0  00:00        0.00
  N158                 JUNCTION     0.00     0.00    22.80     0  00:00        0.00
  N159                 JUNCTION     0.00     0.00    23.00     0  00:00        0.00
  N16                  JUNCTION     0.00     0.00     9.50     0  00:00        0.00
  N167                 JUNCTION     0.00     0.00    61.10     0  00:00        0.00
  N168                 JUNCTION     0.00     0.00    68.50     0  00:00        0.00
  N17                  JUNCTION     0.39     0.70    10.20     0  01:21        0.70
  N170                 JUNCTION     0.00     0.00    73.90     0  00:00        0.00
  N171                 JUNCTION     0.00     0.00    75.20     0  00:00        0.00
  N173                 JUNCTION     0.14     0.26    49.36     0  01:22        0.26
  N180                 JUNCTION     0.00     0.00    48.20     0  00:00        0.00
  N181                 JUNCTION     0.00     0.00    48.70     0  00:00        0.00
  N183                 JUNCTION     0.00     0.00    54.70     0  00:00        0.00
  N184                 JUNCTION     0.29     0.52    50.52     0  01:20        0.52
  N186                 JUNCTION     0.17     1.20    54.20     0  01:32        1.14
  N188                 JUNCTION     0.83     1.60    53.90     0  01:16        1.51
  N19                  JUNCTION     0.51     0.95    13.25     0  01:21        0.93
  N190                 JUNCTION     0.54     1.20    53.80     0  00:47        1.20
  N191                 JUNCTION     0.17     1.20    54.20     0  01:15        0.80
  N192                 JUNCTION     0.44     2.04    54.64     0  01:22        0.88
  N193                 JUNCTION     0.21     0.47    53.07     0  01:17        0.45
  N194                 JUNCTION     0.44     6.37    58.37     0  01:31        0.67
  N195                 JUNCTION     0.14     0.29    52.29     0  01:30        0.27
  N196                 JUNCTION     0.44     0.72    50.72     0  01:21        0.72
  N197                 JUNCTION     0.26     0.52    50.62     0  01:21        0.52
  N199                 JUNCTION     0.00     0.00    61.10     0  00:00        0.00
  N201                 JUNCTION     0.00     0.00    61.00     0  00:00        0.00
  N206                 JUNCTION     0.00     0.00    60.90     0  00:00        0.00
  N207                 JUNCTION     0.00     0.00    51.30     0  00:00        0.00
  N208                 JUNCTION     0.00     0.00    54.80     0  00:00        0.00
  N209                 JUNCTION     0.00     0.00    58.20     0  00:00        0.00
  N21                  JUNCTION     0.00     0.00    14.20     0  00:00        0.00
  N210                 JUNCTION     0.00     0.00    57.00     0  00:00        0.00
  N211                 JUNCTION     0.34     0.65    50.75     0  01:21        0.64
  N214                 JUNCTION     0.00     0.00    61.00     0  00:00        0.00
  N215                 JUNCTION     0.00     0.00    60.10     0  00:00        0.00
  N216                 JUNCTION     0.00     0.00    57.80     0  00:00        0.00
  N217                 JUNCTION     0.00     0.00    56.40     0  00:00        0.00
  N218                 JUNCTION     0.00     0.00    54.60     0  00:00        0.00
  N219                 JUNCTION     0.00     0.00    53.90     0  00:00        0.00
  N221                 JUNCTION     0.11     0.23    51.43     0  01:20        0.23
  N223                 JUNCTION     0.18     0.39    51.79     0  01:20        0.37
  N225                 JUNCTION     0.17     0.36    51.96     0  01:20        0.36
  N226                 JUNCTION     0.12     0.25    52.35     0  01:20        0.25
  N227                 JUNCTION     0.08     0.14    69.04     0  01:20        0.14
  N228                 JUNCTION     0.00     0.00    70.70     0  00:00        0.00
  N229                 JUNCTION     0.15     0.29    70.59     0  01:20        0.29
  N230                 JUNCTION     0.00     0.00    73.60     0  00:00        0.00
  N231                 JUNCTION     0.27     0.59    70.99     0  01:20        0.59
  N233                 JUNCTION     0.00     0.00    68.80     0  00:00        0.00
  N234                 JUNCTION     0.00     0.00    60.70     0  00:00        0.00
  N235                 JUNCTION     0.00     0.00    61.60     0  00:00        0.00
  N239                 JUNCTION     0.00     0.00    74.00     0  00:00        0.00
  N240                 JUNCTION     0.00     0.00    75.10     0  00:00        0.00
  N241                 JUNCTION     0.00     0.00    73.70     0  00:00        0.00
  N243                 JUNCTION     0.00     0.00    68.00     0  00:00        0.00
  N244                 JUNCTION     0.00     0.00    67.70     0  00:00        0.00
  N245                 JUNCTION     0.00     0.00    65.60     0  00:00        0.00
  N246                 JUNCTION     0.00     0.00    64.70     0  00:00        0.00
  N248                 JUNCTION     0.00     0.00    52.00     0  00:00        0.00
  N25                  JUNCTION     0.00     0.00    32.70     0  00:00        0.00
  N251                 JUNCTION     0.00     0.00    51.90     0  00:00        0.00
  N252                 JUNCTION     0.00     0.00    51.90     0  00:00        0.00
  N253                 JUNCTION     0.00     0.00    51.50     0  00:00        0.00
  N254                 JUNCTION     0.00     0.00    54.20     0  00:00        0.00
  N255                 JUNCTION     0.00     0.00    53.70     0  00:00        0.00
  N26                  JUNCTION     0.00     0.00    32.90     0  00:00        0.00
  N261                 JUNCTION     0.00     0.00    56.90     0  00:00        0.00
  N262                 JUNCTION     0.00     0.00    52.20     0  00:00        0.00
  N263                 JUNCTION     0.00     0.00    56.60     0  00:00        0.00
  N264                 JUNCTION     0.21     0.38    48.78     0  01:20        0.37
  N265                 JUNCTION     0.35     0.68    49.38     0  01:20        0.66
  N266                 JUNCTION     0.32     0.64    50.14     0  01:20        0.62
  N267                 JUNCTION     0.21     0.39    52.79     0  01:20        0.39
  N268                 JUNCTION     0.19     0.36    54.36     0  01:20        0.36
  N269                 JUNCTION     0.22     0.40    56.30     0  01:20        0.40
  N27                  JUNCTION     0.00     0.00    32.60     0  00:00        0.00
  N270                 JUNCTION     0.00     0.00    62.40     0  00:00        0.00
  N271                 JUNCTION     0.00     0.00    59.30     0  00:00        0.00
  N272                 JUNCTION     0.00     0.00    59.30     0  00:00        0.00
  N273                 JUNCTION     0.00     0.00    60.40     0  00:00        0.00
  N274                 JUNCTION     0.00     0.00    63.40     0  00:00        0.00
  N275                 JUNCTION     0.00     0.00    65.60     0  00:00        0.00
  N276                 JUNCTION     0.00     0.00    57.95     0  00:00        0.00
  N278                 JUNCTION     0.00     0.00    64.55     0  00:00        0.00
  N279                 JUNCTION     0.00     0.00    69.45     0  00:00        0.00
  N28                  JUNCTION     0.00     0.00    32.30     0  00:00        0.00
  N280                 JUNCTION     0.00     0.00    73.45     0  00:00        0.00
  N281                 JUNCTION     0.00     0.00    78.70     0  00:00        0.00
  N282                 JUNCTION     0.00     0.00    81.50     0  00:00        0.00
  N284                 JUNCTION     0.00     0.00    87.60     0  00:00        0.00
  N29                  JUNCTION     0.00     0.00    24.30     0  00:00        0.00
  N291                 JUNCTION     0.00     0.00    69.60     0  00:00        0.00
  N292                 JUNCTION     0.00     0.00    58.50     0  00:00        0.00
  N293                 JUNCTION     0.00     0.00    50.60     0  00:00        0.00
  N294                 JUNCTION     0.00     0.00    43.80     0  00:00        0.00
  N295                 JUNCTION     0.26     0.49    41.49     0  01:20        0.48
  N297                 JUNCTION     0.00     0.00    42.50     0  00:00        0.00
  N298                 JUNCTION     0.55     1.20    42.20     0  01:22        1.16
  N299                 JUNCTION     0.24     0.44    46.44     0  01:20        0.44
  N300                 JUNCTION     0.00     0.00    43.20     0  00:00        0.00
  N301                 JUNCTION     0.10     1.20    42.90     0  01:27        0.30
  N302                 JUNCTION     0.20     0.44    42.04     0  01:23        0.40
  N304                 JUNCTION     0.43     0.98    45.18     0  01:20        0.97
  N305                 JUNCTION     0.20     0.37    44.27     0  01:20        0.37
  N306                 JUNCTION     0.28     0.55    40.65     0  01:20        0.55
  N307                 JUNCTION     0.00     0.00    51.60     0  00:00        0.00
  N31                  JUNCTION     0.00     0.00    30.30     0  00:00        0.00
  N310                 JUNCTION     0.00     0.00    52.70     0  00:00        0.00
  N311                 JUNCTION     0.00     0.00    52.70     0  00:00        0.00
  N313                 JUNCTION     0.00     0.00    52.40     0  00:00        0.00
  N314                 JUNCTION     0.00     0.00    51.10     0  00:00        0.00
  N315                 JUNCTION     0.00     0.00    51.30     0  00:00        0.00
  N318                 JUNCTION     0.26     0.78    40.58     0  01:20        0.77
  N319                 JUNCTION     0.51     1.20    40.30     0  01:16        1.20
  N320                 JUNCTION     0.97     1.80    40.40     0  01:14        1.45
  N321                 JUNCTION     0.94     4.75    43.35     0  01:34        1.70
  N324                 JUNCTION     0.12     1.20    40.80     0  01:17        0.93
  N325                 JUNCTION     0.32     1.20    40.50     0  01:13        0.99
  N329                 JUNCTION     0.00     0.00    47.40     0  00:00        0.00
  N330                 JUNCTION     0.00     0.00    50.70     0  00:00        0.00
  N331                 JUNCTION     0.18     0.54    54.54     0  01:20        0.48
  N332                 JUNCTION     0.22     1.15    54.45     0  01:19        0.86
  N333                 JUNCTION     0.24     0.43    40.13     0  01:21        0.43
  N334                 JUNCTION     0.41     0.89    38.99     0  01:18        0.88
  N335                 JUNCTION     0.32     1.13    38.73     0  01:18        0.93
  N336                 JUNCTION     1.58     2.20    38.30     0  00:57        2.20
  N337                 JUNCTION     0.31     0.67    39.27     0  01:20        0.66
  N338                 JUNCTION     0.92     6.80    45.40     0  01:34        2.71
  N34                  JUNCTION     0.00     0.46    16.26     0  01:22        0.43
  N341                 JUNCTION     0.80     1.20    42.60     0  01:17        1.20
  N342                 JUNCTION     0.39     0.78    42.48     0  01:19        0.77
  N344                 JUNCTION     1.01     1.20    44.80     0  01:17        1.20
  N345                 JUNCTION     0.42     0.63    44.83     0  01:28        0.61
  N346                 JUNCTION     0.20     0.41    44.31     0  01:20        0.40
  N347                 JUNCTION     0.16     0.33    43.23     0  01:20        0.32
  N35                  JUNCTION     0.00     0.10    16.20     0  01:22        0.04
  N351                 JUNCTION     0.45     1.20    38.50     0  00:44        1.01
  N352                 JUNCTION     1.66     3.05    39.05     0  01:43        2.28
  N355                 JUNCTION     0.00     0.00    39.60     0  00:00        0.00
  N356                 JUNCTION     0.16     0.31    40.91     0  01:20        0.31
  N357                 JUNCTION     0.24     1.20    39.70     0  01:19        0.90
  N358                 JUNCTION     0.22     1.16    38.96     0  01:19        0.87
  N359                 JUNCTION     2.05     3.19    38.79     0  01:43        2.70
  N36                  JUNCTION     0.00     0.07    15.77     0  01:22        0.06
  N361                 JUNCTION     0.00     0.00    39.10     0  00:00        0.00
  N362                 JUNCTION     0.00     0.00    40.50     0  00:00        0.00
  N363                 JUNCTION     1.83     2.76    38.56     0  01:44        2.52
  N364                 JUNCTION     0.14     0.27    48.37     0  01:20        0.27
  N365                 JUNCTION     0.00     0.00    49.40     0  00:00        0.00
  N366                 JUNCTION     0.00     0.00    50.60     0  00:00        0.00
  N367                 JUNCTION     0.00     0.00    51.40     0  00:00        0.00
  N368                 JUNCTION     1.27     2.58    38.98     0  02:11        1.87
  N369                 JUNCTION     1.66     2.20    38.20     0  00:44        2.20
  N37                  JUNCTION     0.00     0.07    14.97     0  01:23        0.05
  N370                 JUNCTION     1.55     2.20    38.30     0  01:56        2.13
  N371                 JUNCTION     1.63     2.20    38.20     0  00:56        2.20
  N372                 JUNCTION     1.63     2.57    38.57     0  01:43        2.21
  N373                 JUNCTION     1.61     2.65    38.65     0  01:56        2.23
  N374                 JUNCTION     0.00     0.00    44.80     0  00:00        0.00
  N375                 JUNCTION     0.00     0.00    36.60     0  00:00        0.00
  N376                 JUNCTION     0.52     1.20    38.40     0  00:39        1.02
  N377                 JUNCTION     0.00     0.00    39.30     0  00:00        0.00
  N378                 JUNCTION     0.41     1.20    38.50     0  00:44        0.71
  N379                 JUNCTION     0.85     1.20    38.00     0  00:44        1.20
  N38                  JUNCTION     0.08     0.13    14.73     0  03:15        0.13
  N380                 JUNCTION     0.00     0.00    70.80     0  00:00        0.00
  N381                 JUNCTION     0.00     0.00    92.10     0  00:00        0.00
  N382                 JUNCTION     0.00     0.00    95.30     0  00:00        0.00
  N383                 JUNCTION     0.00     0.00    95.90     0  00:00        0.00
  N384                 JUNCTION     0.00     0.00    95.90     0  00:00        0.00
  N385                 JUNCTION     0.00     0.00   102.50     0  00:00        0.00
  N386                 JUNCTION     0.00     0.00    97.40     0  00:00        0.00
  N388                 JUNCTION     0.00     0.00    82.50     0  00:00        0.00
  N39                  JUNCTION     0.00     0.00    14.80     0  00:00        0.00
  N391                 JUNCTION     1.55     2.20    38.20     0  00:59        2.20
  N392                 JUNCTION     1.65     2.20    38.10     0  00:59        2.20
  N393                 JUNCTION     1.65     2.44    38.34     0  01:10        2.23
  N394                 JUNCTION     1.66     2.51    38.41     0  01:40        2.29
  N395                 JUNCTION     1.67     2.65    38.55     0  01:40        2.35
  N396                 JUNCTION     1.68     2.69    38.59     0  01:40        2.37
  N397                 JUNCTION     0.10     0.19    47.89     0  01:20        0.19
  N398                 JUNCTION     0.10     0.19    57.99     0  01:20        0.19
  N399                 JUNCTION     0.00     0.00    61.80     0  00:00        0.00
  N40                  JUNCTION     0.00     0.00    14.30     0  00:00        0.00
  N400                 JUNCTION     0.00     0.00    62.80     0  00:00        0.00
  N402                 JUNCTION     0.13     0.24    68.64     0  01:20        0.24
  N403                 JUNCTION     0.00     0.00    74.70     0  00:00        0.00
  N404                 JUNCTION     0.00     0.00    82.90     0  00:00        0.00
  N406                 JUNCTION     0.00     0.00    81.30     0  00:00        0.00
  N407                 JUNCTION     0.00     0.00    80.00     0  00:00        0.00
  N408                 JUNCTION     0.00     0.00    40.80     0  00:00        0.00
  N409                 JUNCTION     0.00     0.00    48.40     0  00:00        0.00
  N41                  JUNCTION     0.00     0.00    13.70     0  00:00        0.00
  N410                 JUNCTION     0.70     1.20    38.10     0  00:37        1.20
  N411                 JUNCTION     0.70     1.20    38.10     0  00:37        1.20
  N412                 JUNCTION     0.20     1.20    38.70     0  00:59        0.62
  N413                 JUNCTION     0.00     0.00    58.35     0  00:00        0.00
  N414                 JUNCTION     0.10     0.18    50.93     0  01:20        0.18
  N415                 JUNCTION     0.00     0.04    50.94     0  01:22        0.04
  N416                 JUNCTION     0.00     0.00    56.30     0  00:00        0.00
  N417                 JUNCTION     0.11     0.20    44.50     0  01:20        0.20
  N418                 JUNCTION     0.00     0.00    43.80     0  00:00        0.00
  N419                 JUNCTION     0.00     0.00    40.00     0  00:00        0.00
  N420                 JUNCTION     0.11     0.21    41.61     0  01:20        0.20
  N421                 JUNCTION     1.83     3.20    36.70     0  01:16        3.20
  N422                 JUNCTION     1.83     3.20    36.70     0  01:04        3.20
  N425                 JUNCTION     0.00     0.00    59.20     0  00:00        0.00
  N426                 JUNCTION     0.00     0.00    46.80     0  00:00        0.00
  N427                 JUNCTION     0.00     0.00    46.00     0  00:00        0.00
  N428                 JUNCTION     0.05     0.13    50.93     0  01:20        0.13
  N429                 JUNCTION     0.05     0.13    50.93     0  01:21        0.13
  N431                 JUNCTION     0.00     0.00    43.10     0  00:00        0.00
  N432                 JUNCTION     0.10     0.17    39.37     0  01:21        0.17
  N435                 JUNCTION     0.00     0.00    36.10     0  03:04        0.00
  N436                 JUNCTION     0.00     0.00    37.10     0  01:30        0.00
  N437                 JUNCTION     0.00     0.00    38.50     0  01:20        0.00
  N438                 JUNCTION     1.27     2.50    38.70     0  01:16        2.35
  N439                 JUNCTION     1.81     4.32    37.82     0  01:04        2.97
  N440                 JUNCTION     0.00     0.00    38.80     0  00:00        0.00
  N441                 JUNCTION     0.00     0.00    42.10     0  00:00        0.00
  N442                 JUNCTION     0.00     0.00    42.90     0  00:00        0.00
  N443                 JUNCTION     0.00     0.00    41.20     0  00:00        0.00
  N444                 JUNCTION     0.00     0.00    39.20     0  00:00        0.00
  N445                 JUNCTION     0.00     0.00    42.60     0  00:00        0.00
  N446                 JUNCTION     0.70     1.17    37.37     0  01:18        1.14
  N447                 JUNCTION     0.02     1.20    37.10     0  01:18        1.20
  N448                 JUNCTION     0.34     1.20    36.60     0  01:18        1.20
  N449                 JUNCTION     1.82     3.20    36.70     0  01:04        3.19
  N451                 JUNCTION     1.90     3.81    37.21     0  00:57        3.01
  N452                 JUNCTION     0.00     0.00    42.50     0  00:00        0.00
  N454                 JUNCTION     0.46     1.04    36.84     0  01:19        1.01
  N455                 JUNCTION     0.00     0.00    44.70     0  00:00        0.00
  N456                 JUNCTION     1.95     3.61    36.96     0  02:00        3.02
  N457                 JUNCTION     1.94     4.15    37.50     0  00:55        2.99
  N459                 JUNCTION     1.93     4.43    37.78     0  00:55        2.98
  N460                 JUNCTION     0.00     0.00    43.90     0  00:00        0.00
  N461                 JUNCTION     1.17     1.50    37.80     0  00:43        1.50
  N462                 JUNCTION     1.08     1.50    37.90     0  00:43        1.50
  N463                 JUNCTION     0.00     0.00    41.30     0  00:00        0.00
  N464                 JUNCTION     0.00     0.00    39.10     0  00:00        0.00
  N465                 JUNCTION     0.21     0.52    37.92     0  02:04        0.50
  N466                 JUNCTION     0.16     0.30    39.90     0  01:20        0.30
  N467                 JUNCTION     0.17     0.31    42.51     0  01:20        0.31
  N468                 JUNCTION     0.00     0.00    45.80     0  00:00        0.00
  N469                 JUNCTION     0.00     0.00    46.40     0  00:00        0.00
  N47                  JUNCTION     0.00     0.00    34.90     0  00:00        0.00
  N470                 JUNCTION     0.00     0.00    46.20     0  00:00        0.00
  N471                 JUNCTION     0.00     0.00    46.60     0  00:00        0.00
  N472                 JUNCTION     0.00     0.00    47.00     0  00:00        0.00
  N474                 JUNCTION     0.00     0.00    46.80     0  00:00        0.00
  N475                 JUNCTION     0.00     0.00    42.50     0  00:00        0.00
  N476                 JUNCTION     0.00     0.00    45.10     0  00:00        0.00
  N477                 JUNCTION     0.00     0.00    42.10     0  00:00        0.00
  N478                 JUNCTION     0.00     0.00    45.60     0  00:00        0.00
  N479                 JUNCTION     0.00     0.00    45.10     0  00:00        0.00
  N480                 JUNCTION     0.20     1.11    53.81     0  01:19        0.96
  N481                 JUNCTION     0.22     1.20    54.20     0  01:19        0.91
  N483                 JUNCTION     0.00     0.00    46.60     0  00:00        0.00
  N484                 JUNCTION     0.00     0.00    47.40     0  00:00        0.00
  N486                 JUNCTION     0.00     0.00    49.40     0  00:00        0.00
  N487                 JUNCTION     0.00     0.00    50.50     0  00:00        0.00
  N488                 JUNCTION     0.00     0.00    50.50     0  00:00        0.00
  N490                 JUNCTION     0.21     0.53    54.13     0  01:22        0.52
  N491                 JUNCTION     0.36     0.80    54.20     0  01:21        0.70
  N492                 JUNCTION     0.07     0.16    53.56     0  01:19        0.16
  N493                 JUNCTION     0.00     0.00    44.40     0  00:00        0.00
  N494                 JUNCTION     0.00     0.00    50.90     0  00:00        0.00
  N495                 JUNCTION     0.00     0.00    55.60     0  00:00        0.00
  N496                 JUNCTION     0.42     1.28    53.58     0  01:20        1.21
  N497                 JUNCTION     0.36     1.06    53.36     0  01:19        0.99
  N498                 JUNCTION     0.33     0.96    53.26     0  01:19        0.86
  N499                 JUNCTION     0.29     0.83    53.13     0  01:19        0.73
  N50                  JUNCTION     0.29     0.55    32.55     0  01:20        0.54
  N500                 JUNCTION     0.25     0.57    52.77     0  01:20        0.57
  N501                 JUNCTION     0.16     0.33    52.33     0  01:21        0.32
  N502                 JUNCTION     0.09     0.18    50.78     0  01:21        0.18
  N503                 JUNCTION     0.53     0.73    44.33     0  01:20        0.73
  N504                 JUNCTION     0.00     0.00    62.30     0  00:00        0.00
  N505                 JUNCTION     0.00     0.00    61.20     0  00:00        0.00
  N506                 JUNCTION     0.00     0.00    60.80     0  00:00        0.00
  N507                 JUNCTION     0.00     0.00    61.90     0  00:00        0.00
  N508                 JUNCTION     0.22     1.56    54.66     0  01:19        1.15
  N509                 JUNCTION     0.23     1.51    54.01     0  01:19        1.21
  N51                  JUNCTION     0.22     0.41    31.21     0  01:20        0.40
  N510                 JUNCTION     0.55     2.88    54.88     0  01:57        1.34
  N511                 JUNCTION     0.55     1.20    53.20     0  00:55        1.20
  N512                 JUNCTION     0.09     1.20    53.70     0  01:19        1.18
  N513                 JUNCTION     0.01     1.20    54.00     0  01:19        1.20
  N514                 JUNCTION     0.47     1.67    53.67     0  01:06        0.92
  N519                 JUNCTION     0.00     0.00    61.00     0  00:00        0.00
  N520                 JUNCTION     0.00     0.00    57.60     0  00:00        0.00
  N523                 JUNCTION     0.10     0.19    51.39     0  01:20        0.19
  N524                 JUNCTION     0.21     0.43    52.43     0  01:20        0.43
  N527                 JUNCTION     0.00     0.00    53.00     0  00:00        0.00
  N528                 JUNCTION     0.00     0.00    51.60     0  00:00        0.00
  N529                 JUNCTION     0.00     0.00    49.90     0  00:00        0.00
  N53                  JUNCTION     0.00     0.00    64.50     0  00:00        0.00
  N531                 JUNCTION     0.00     0.00    54.30     0  00:00        0.00
  N533                 JUNCTION     0.00     0.00    67.70     0  00:00        0.00
  N535                 JUNCTION     0.00     0.00    48.70     0  00:00        0.00
  N536                 JUNCTION     0.00     0.00    56.30     0  00:00        0.00
  N537                 JUNCTION     0.22     0.44    42.94     0  01:20        0.43
  N538                 JUNCTION     0.19     0.37    41.87     0  01:20        0.36
  N539                 JUNCTION     0.11     0.20    39.90     0  01:20        0.20
  N54                  JUNCTION     0.00     0.00    63.80     0  00:00        0.00
  N540                 JUNCTION     0.30     0.56    31.36     0  01:21        0.54
  N541                 JUNCTION     0.18     0.40    44.50     0  01:20        0.40
  N542                 JUNCTION     0.30     0.81    43.81     0  01:20        0.78
  N543                 JUNCTION     0.20     0.43    43.23     0  01:20        0.42
  N544                 JUNCTION     0.00     0.00    43.50     0  00:00        0.00
  N55                  JUNCTION     0.00     0.00    52.50     0  00:00        0.00
  N552                 JUNCTION     0.00     0.00    47.90     0  00:00        0.00
  N553                 JUNCTION     0.00     0.00    47.80     0  00:00        0.00
  N555                 JUNCTION     0.01     0.13    44.33     0  01:21        0.12
  N556                 JUNCTION     0.43     0.64    44.34     0  01:21        0.64
  N557                 JUNCTION     0.00     0.00    44.70     0  00:00        0.00
  N558                 JUNCTION     0.07     0.28    44.38     0  01:22        0.27
  N559                 JUNCTION     0.31     0.62    42.62     0  01:20        0.58
  N56                  JUNCTION     0.00     0.00    44.60     0  00:00        0.00
  N560                 JUNCTION     0.23     0.45    40.15     0  01:21        0.44
  N562                 JUNCTION     0.26     0.57    46.47     0  01:20        0.49
  N563                 JUNCTION     0.27     0.59    50.19     0  01:20        0.54
  N564                 JUNCTION     0.15     0.26    44.16     0  01:21        0.26
  N565                 JUNCTION     0.00     0.00    50.80     0  00:00        0.00
  N567                 JUNCTION     0.00     0.00    42.30     0  00:00        0.00
  N57                  JUNCTION     0.00     0.00    45.60     0  00:00        0.00
  N572                 JUNCTION     0.08     0.12    54.32     0  01:20        0.12
  N573                 JUNCTION     0.16     0.23    56.13     0  01:17        0.23
  N574                 JUNCTION     0.47     0.82    56.62     0  01:16        0.80
  N575                 JUNCTION     0.37     0.73    56.63     0  01:16        0.70
  N576                 JUNCTION     0.00     0.00    57.60     0  00:00        0.00
  N577                 JUNCTION     0.00     0.00    58.90     0  00:00        0.00
  N578                 JUNCTION     0.00     0.00    57.10     0  00:00        0.00
  N579                 JUNCTION     0.61     1.20    57.00     0  01:16        1.20
  N580                 JUNCTION     0.07     1.20    57.70     0  01:16        0.52
  N581                 JUNCTION     0.00     0.00    58.00     0  00:00        0.00
  N582                 JUNCTION     0.49     2.20    55.10     0  01:18        2.20
  N583                 JUNCTION     0.82     2.20    54.70     0  01:18        2.20
  N584                 JUNCTION     0.74     1.89    54.39     0  01:18        1.81
  N585                 JUNCTION     0.32     1.25    54.05     0  01:18        1.12
  N586                 JUNCTION     0.27     1.04    53.74     0  01:18        0.89
  N587                 JUNCTION     0.18     0.94    53.54     0  01:18        0.82
  N588                 JUNCTION     0.35     0.77    51.77     0  01:26        0.75
  N589                 JUNCTION     0.89     3.42    54.42     0  01:20        1.80
  N59                  JUNCTION     0.00     0.00    45.70     0  00:00        0.00
  N590                 JUNCTION     0.36     1.01    52.71     0  01:21        1.01
  N591                 JUNCTION     0.00     0.00    53.50     0  00:00        0.00
  N592                 JUNCTION     0.00     0.00    39.20     0  00:00        0.00
  N593                 JUNCTION     0.00     0.00    42.70     0  00:00        0.00
  N594                 JUNCTION     0.00     0.00    45.80     0  00:00        0.00
  N595                 JUNCTION     0.00     0.00    44.20     0  00:00        0.00
  N596                 JUNCTION     0.32     1.20    52.90     0  01:17        1.20
  N597                 JUNCTION     0.75     2.22    53.42     0  01:20        1.57
  N598                 JUNCTION     0.81     2.80    53.90     0  01:20        1.51
  N599                 JUNCTION     0.00     0.00    45.40     0  00:00        0.00
  N600                 JUNCTION     0.00     0.00    44.20     0  00:00        0.00
  N601                 JUNCTION     0.00     0.00    45.00     0  00:00        0.00
  N603                 JUNCTION     0.00     0.00    43.40     0  00:00        0.00
  N604                 JUNCTION     0.00     0.00    40.80     0  00:00        0.00
  N605                 JUNCTION     0.35     1.13    39.63     0  01:15        0.91
  N606                 JUNCTION     0.62     1.20    39.40     0  00:55        1.20
  N608                 JUNCTION     2.32     4.16    37.06     0  02:00        3.21
  N609                 JUNCTION     2.57     3.77    36.37     0  02:00        3.34
  N61                  JUNCTION     0.00     0.00    54.40     0  00:00        0.00
  N610                 JUNCTION     1.14     1.84    35.74     0  01:19        1.81
  N611                 JUNCTION     0.19     0.33    38.33     0  01:20        0.33
  N613                 JUNCTION     0.61     1.07    35.27     0  01:19        1.02
  N614                 JUNCTION     1.18     1.80    35.60     0  01:19        1.78
  N615                 JUNCTION     0.41     0.78    34.48     0  01:19        0.69
  N616                 JUNCTION     0.42     0.91    32.11     0  01:20        0.91
  N617                 JUNCTION     0.49     1.12    30.32     0  01:20        0.99
  N618                 JUNCTION     0.07     1.20    40.10     0  01:17        0.61
  N619                 JUNCTION     0.00     0.00    39.60     0  01:17        0.00
  N62                  JUNCTION     0.21     0.39    27.99     0  01:20        0.37
  N620                 JUNCTION     0.00     0.00    39.80     0  00:00        0.00
  N621                 JUNCTION     0.66     3.13    41.13     0  01:32        1.94
  N623                 JUNCTION     0.76     3.75    41.75     0  01:32        2.26
  N625                 JUNCTION     0.85     4.14    42.14     0  01:32        2.38
  N626                 JUNCTION     0.18     0.37    58.67     0  01:20        0.37
  N627                 JUNCTION     1.30     2.20    53.20     0  01:18        2.11
  N628                 JUNCTION     0.16     0.31    59.61     0  01:20        0.30
  N629                 JUNCTION     0.00     0.00    46.60     0  00:00        0.00
  N63                  JUNCTION     0.67     1.24    27.44     0  01:20        1.21
  N630                 JUNCTION     0.00     0.00    46.00     0  00:00        0.00
  N631                 JUNCTION     0.00     0.00    43.90     0  00:00        0.00
  N632                 JUNCTION     0.00     0.00    45.40     0  00:00        0.00
  N633                 JUNCTION     0.00     0.00    39.60     0  00:00        0.00
  N634                 JUNCTION     0.00     0.00    34.20     0  00:00        0.00
  N635                 JUNCTION     0.59     2.69    40.69     0  01:32        1.58
  N636                 JUNCTION     0.11     0.18    29.88     0  01:20        0.18
  N637                 JUNCTION     0.48     1.20    29.00     0  01:20        0.86
  N638                 JUNCTION     0.45     1.16    27.56     0  01:20        1.12
  N639                 JUNCTION     0.48     1.43    27.93     0  01:20        1.15
  N64                  JUNCTION     0.32     0.91    27.11     0  01:22        0.67
  N640                 JUNCTION     0.54     1.49    25.79     0  01:21        1.31
  N643                 JUNCTION     0.33     0.78    27.68     0  01:21        0.73
  N644                 JUNCTION     0.32     0.76    27.76     0  01:21        0.67
  N645                 JUNCTION     0.00     0.00    42.70     0  00:00        0.00
  N646                 JUNCTION     0.00     0.00    39.00     0  00:00        0.00
  N647                 JUNCTION     0.00     0.00    45.40     0  00:00        0.00
  N648                 JUNCTION     0.00     0.00    46.60     0  00:00        0.00
  N649                 JUNCTION     0.14     0.25    24.55     0  01:20        0.24
  N65                  JUNCTION     0.50     1.01    26.81     0  01:22        1.00
  N650                 JUNCTION     0.13     0.21    23.21     0  01:21        0.21
  N651                 JUNCTION     1.30     2.20    53.20     0  01:18        2.05
  N652                 JUNCTION     1.30     2.20    53.20     0  01:18        2.06
  N653                 JUNCTION     1.30     2.20    53.20     0  01:18        2.05
  N654                 JUNCTION     0.00     0.00    47.40     0  00:00        0.00
  N655                 JUNCTION     0.00     0.00    49.00     0  00:00        0.00
  N656                 JUNCTION     0.00     0.00    50.10     0  00:00        0.00
  N657                 JUNCTION     0.00     0.00    54.20     0  00:00        0.00
  N658                 JUNCTION     0.21     0.47    53.77     0  01:20        0.46
  N659                 JUNCTION     0.19     0.43    53.63     0  01:20        0.42
  N660                 JUNCTION     0.10     0.27    53.37     0  01:20        0.26
  N661                 JUNCTION     1.30     2.58    53.58     0  01:18        2.06
  N662                 JUNCTION     0.19     0.39    58.49     0  01:20        0.37
  N663                 JUNCTION     0.19     0.38    57.78     0  01:20        0.37
  N664                 JUNCTION     0.10     0.19    56.99     0  01:21        0.19
  N665                 JUNCTION     1.29     2.87    53.87     0  01:18        2.02
  N666                 JUNCTION     0.00     0.00    57.80     0  00:00        0.00
  N667                 JUNCTION     0.00     0.00    57.60     0  00:00        0.00
  N668                 JUNCTION     0.25     0.54    59.94     0  01:20        0.53
  N669                 JUNCTION     0.22     0.48    60.08     0  01:20        0.48
  N670                 JUNCTION     0.00     0.00    56.90     0  00:00        0.00
  N671                 JUNCTION     0.00     0.00    57.10     0  00:00        0.00
  N672                 JUNCTION     0.45     1.21    52.96     0  01:21        1.20
  N673                 JUNCTION     0.66     1.37    52.87     0  01:21        1.32
  N674                 JUNCTION     1.25     1.99    52.99     0  01:21        1.91
  N675                 JUNCTION     0.71     1.55    53.05     0  01:21        1.43
  N676                 JUNCTION     0.00     0.00    47.80     0  00:00        0.00
  N677                 JUNCTION     0.12     0.24    54.64     0  01:20        0.23
  N678                 JUNCTION     0.22     0.46    55.16     0  01:20        0.45
  N679                 JUNCTION     0.19     0.41    55.41     0  01:20        0.41
  N680                 JUNCTION     0.00     0.00    52.50     0  00:00        0.00
  N681                 JUNCTION     0.29     4.06    56.16     0  01:18        1.17
  N682                 JUNCTION     0.47     4.40    56.50     0  01:18        1.64
  N683                 JUNCTION     0.50     3.30    55.40     0  01:18        1.66
  N684                 JUNCTION     0.42     2.52    54.72     0  01:18        1.61
  N685                 JUNCTION     0.35     1.70    54.10     0  01:17        1.46
  N686                 JUNCTION     0.00     0.00    54.70     0  00:00        0.00
  N687                 JUNCTION     0.29     2.11    54.51     0  01:18        1.43
  N688                 JUNCTION     0.00     0.00    47.60     0  00:00        0.00
  N689                 JUNCTION     0.08     0.12    37.72     0  01:19        0.12
  N690                 JUNCTION     0.21     1.20    44.50     0  01:18        1.20
  N691                 JUNCTION     0.18     1.20    49.60     0  01:19        1.17
  N692                 JUNCTION     0.25     2.20    54.70     0  01:18        2.08
  N693                 JUNCTION     0.19     1.20    54.60     0  01:19        1.20
  N694                 JUNCTION     0.00     0.00    55.40     0  00:00        0.00
  N698                 JUNCTION     0.00     0.00    45.30     0  00:00        0.00
  N699                 JUNCTION     0.00     0.00    42.30     0  00:00        0.00
  N700                 JUNCTION     0.27     1.20    53.90     0  01:18        1.20
  N701                 JUNCTION     0.18     1.20    54.60     0  01:18        0.77
  N702                 JUNCTION     0.00     0.00    38.60     0  00:00        0.00
  N706                 JUNCTION     0.00     0.00    47.70     0  00:00        0.00
  N710                 JUNCTION     0.07     0.14    51.24     0  01:20        0.14
  N711                 JUNCTION     0.15     0.30    53.00     0  01:20        0.29
  N712                 JUNCTION     0.00     0.00    55.00     0  00:00        0.00
  N713                 JUNCTION     0.00     0.00    54.00     0  00:00        0.00
  N714                 JUNCTION     0.00     0.00    53.10     0  00:00        0.00
  N715                 JUNCTION     0.00     0.00    52.10     0  00:00        0.00
  N718                 JUNCTION     0.00     0.00    51.60     0  00:00        0.00
  N730                 JUNCTION     0.00     0.00    26.90     0  00:00        0.00
  N731                 JUNCTION     0.00     0.00    44.80     0  00:00        0.00
  N732                 JUNCTION     0.00     0.00    47.60     0  00:00        0.00
  N733                 JUNCTION     0.00     0.00    48.20     0  00:00        0.00
  N734                 JUNCTION     0.00     0.00    48.80     0  00:00        0.00
  N735                 JUNCTION     0.00     0.00    48.40     0  00:00        0.00
  N736                 JUNCTION     0.16     0.31    42.41     0  01:20        0.31
  N737                 JUNCTION     0.20     0.38    34.28     0  01:20        0.38
  N738                 JUNCTION     0.23     1.20    29.50     0  01:18        1.20
  N739                 JUNCTION     0.00     0.00    41.60     0  00:00        0.00
  N740                 JUNCTION     0.00     0.00    42.20     0  00:00        0.00
  N741                 JUNCTION     0.00     0.00    41.70     0  00:00        0.00
  N742                 JUNCTION     0.00     0.00    37.20     0  00:00        0.00
  N743                 JUNCTION     0.00     0.00    31.40     0  00:00        0.00
  N744                 JUNCTION     0.00     0.00    29.70     0  00:00        0.00
  N747                 JUNCTION     0.43     0.66    21.16     0  01:22        0.66
  N749                 JUNCTION     0.75     1.03    21.23     0  01:22        1.02
  N75                  JUNCTION     0.00     0.00    30.00     0  00:00        0.00
  N750                 JUNCTION     0.76     1.04    21.24     0  01:22        1.04
  N753                 JUNCTION     0.29     0.50    21.10     0  01:23        0.50
  N756                 JUNCTION     0.19     0.37    19.07     0  01:20        0.36
  N757                 JUNCTION     0.38     0.58    18.88     0  01:20        0.57
  N758                 JUNCTION     0.15     0.31    18.71     0  01:21        0.31
  N759                 JUNCTION     0.00     0.00    23.20     0  00:00        0.00
  N76                  JUNCTION     0.00     0.00    30.80     0  00:00        0.00
  N761                 JUNCTION     0.00     0.00    21.70     0  00:00        0.00
  N763                 JUNCTION     0.00     0.00    24.20     0  00:00        0.00
  N764                 JUNCTION     1.11     1.20    48.00     0  00:18        1.20
  N765                 JUNCTION     0.68     1.20    50.20     0  01:17        1.20
  N766                 JUNCTION     0.21     0.34    49.54     0  01:23        0.34
  N767                 JUNCTION     0.24     0.38    48.08     0  01:18        0.37
  N768                 JUNCTION     0.21     0.35    47.45     0  01:18        0.34
  N769                 JUNCTION     0.21     0.33    45.43     0  01:19        0.33
  N77                  JUNCTION     0.00     0.00    36.90     0  00:00        0.00
  N770                 JUNCTION     0.00     0.00    49.30     0  00:00        0.00
  N774                 JUNCTION     0.00     0.00    50.20     0  00:00        0.00
  N775                 JUNCTION     0.00     0.00    48.00     0  00:00        0.00
  N776                 JUNCTION     0.00     0.00    51.40     0  00:00        0.00
  N777                 JUNCTION     0.00     0.00    51.60     0  00:00        0.00
  N778                 JUNCTION     0.00     0.00    52.70     0  00:00        0.00
  N779                 JUNCTION     0.00     0.00    54.50     0  00:00        0.00
  N78                  JUNCTION     0.00     0.00    43.60     0  00:00        0.00
  N780                 JUNCTION     0.00     0.00    51.80     0  00:00        0.00
  N781                 JUNCTION     0.00     0.00    45.20     0  00:00        0.00
  N784                 JUNCTION     0.00     0.00    46.70     0  00:00        0.00
  N785                 JUNCTION     0.00     0.00    47.10     0  00:00        0.00
  N786                 JUNCTION     0.00     0.00    46.20     0  00:00        0.00
  N787                 JUNCTION     0.00     0.00    45.30     0  00:00        0.00
  N788                 JUNCTION     0.00     0.00    45.50     0  00:00        0.00
  N789                 JUNCTION     0.00     0.00    44.80     0  00:00        0.00
  N79                  JUNCTION     0.00     0.00    49.00     0  00:00        0.00
  N791                 JUNCTION     0.23     0.38    43.38     0  01:19        0.37
  N792                 JUNCTION     0.19     0.30    41.70     0  01:19        0.29
  N793                 JUNCTION     0.60     1.09    45.79     0  00:21        0.74
  N794                 JUNCTION     0.00     0.00    44.70     0  00:00        0.00
  N795                 JUNCTION     0.00     0.00    47.80     0  00:00        0.00
  N796                 JUNCTION     0.00     0.00    38.70     0  00:00        0.00
  N797                 JUNCTION     0.42     0.76    35.56     0  01:18        0.66
  N798                 JUNCTION     0.00     0.00    37.30     0  00:00        0.00
  N799                 JUNCTION     0.61     1.20    35.80     0  01:18        0.85
  N8                   JUNCTION     0.00     0.00    17.10     0  00:00        0.00
  N80                  JUNCTION     0.00     0.00    56.90     0  00:00        0.00
  N800                 JUNCTION     0.15     0.79    35.89     0  01:18        0.36
  N801                 JUNCTION     0.00     0.00    35.70     0  01:18        0.00
  N803                 JUNCTION     0.00     0.00    40.80     0  00:00        0.00
  N804                 JUNCTION     0.30     1.20    25.80     0  01:17        1.20
  N805                 JUNCTION     0.31     0.54    23.14     0  01:20        0.54
  N806                 JUNCTION     0.14     0.30    18.20     0  01:21        0.29
  N807                 JUNCTION     0.37     0.74    18.64     0  01:22        0.70
  N808                 JUNCTION     0.51     0.86    17.96     0  01:23        0.84
  N810                 JUNCTION     0.18     0.30    21.70     0  01:20        0.30
  N811                 JUNCTION     0.00     0.00    22.40     0  00:00        0.00
  N82                  JUNCTION     0.00     0.00    42.10     0  00:00        0.00
  N825                 JUNCTION     0.08     0.16    55.76     0  01:20        0.16
  N826                 JUNCTION     0.07     0.12    56.82     0  01:20        0.12
  N827                 JUNCTION     0.00     0.00    56.90     0  00:00        0.00
  N829                 JUNCTION     0.00     0.00    25.15     0  00:00        0.00
  N830                 JUNCTION     0.00     0.00    34.85     0  00:00        0.00
  N831                 JUNCTION     0.00     0.00    37.90     0  00:00        0.00
  N832                 JUNCTION     0.00     0.00    37.80     0  00:00        0.00
  N833                 JUNCTION     0.00     0.00    38.00     0  00:00        0.00
  N834                 JUNCTION     0.00     0.00    38.20     0  00:00        0.00
  N835                 JUNCTION     0.00     0.00    35.60     0  00:00        0.00
  N836                 JUNCTION     0.00     0.00    39.50     0  00:00        0.00
  N837                 JUNCTION     0.00     0.00    42.10     0  00:00        0.00
  N838                 JUNCTION     0.00     0.00    41.90     0  00:00        0.00
  N840                 JUNCTION     0.87     1.16    23.36     0  01:18        1.16
  N841                 JUNCTION     0.16     0.25    25.75     0  01:23        0.25
  N842                 JUNCTION     0.34     0.57    23.17     0  01:20        0.57
  N843                 JUNCTION     0.86     1.20    27.20     0  00:55        1.20
  N844                 JUNCTION     0.67     1.05    27.25     0  01:18        1.04
  N845                 JUNCTION     0.25     0.42    26.92     0  01:23        0.42
  N846                 JUNCTION     0.01     0.25    27.25     0  01:18        0.24
  N847                 JUNCTION     0.22     0.43    32.63     0  01:20        0.42
  N848                 JUNCTION     0.17     0.32    31.12     0  01:20        0.31
  N849                 JUNCTION     0.00     0.00    34.90     0  00:00        0.00
  N850                 JUNCTION     0.28     0.55    33.35     0  01:20        0.55
  N851                 JUNCTION     0.00     0.00    42.40     0  00:00        0.00
  N852                 JUNCTION     0.00     0.00    44.60     0  00:00        0.00
  N853                 JUNCTION     0.00     0.00    46.90     0  00:00        0.00
  N854                 JUNCTION     0.00     0.00    47.80     0  00:00        0.00
  N855                 JUNCTION     0.00     0.00    48.20     0  00:00        0.00
  N856                 JUNCTION     0.00     0.00    28.60     0  00:00        0.00
  N857                 JUNCTION     0.00     0.00    28.70     0  00:00        0.00
  N858                 JUNCTION     0.00     0.00    28.80     0  00:00        0.00
  N859                 JUNCTION     0.00     0.00    52.00     0  00:00        0.00
  N86                  JUNCTION     0.55     1.07    27.67     0  01:21        1.02
  N860                 JUNCTION     0.00     0.00    48.70     0  00:00        0.00
  N861                 JUNCTION     0.00     0.00    36.30     0  00:00        0.00
  N862                 JUNCTION     0.00     0.00    37.60     0  00:00        0.00
  N863                 JUNCTION     0.00     0.00    37.80     0  00:00        0.00
  N865                 JUNCTION     0.00     0.00    54.10     0  00:00        0.00
  N866                 JUNCTION     0.00     0.00    49.00     0  00:00        0.00
  N867                 JUNCTION     0.00     0.00    43.10     0  00:00        0.00
  N868                 JUNCTION     0.00     0.00    38.30     0  00:00        0.00
  N869                 JUNCTION     0.20     0.38    38.18     0  01:20        0.37
  N870                 JUNCTION     0.15     0.28    36.98     0  01:20        0.28
  N871                 JUNCTION     0.00     0.00    41.60     0  00:00        0.00
  N872                 JUNCTION     0.50     1.20    39.00     0  01:22        0.89
  N873                 JUNCTION     0.00     0.00    38.70     0  00:00        0.00
  N874                 JUNCTION     0.00     0.00    42.40     0  00:00        0.00
  N875                 JUNCTION     0.00     0.00    35.80     0  01:48        0.00
  N876                 JUNCTION     0.67     1.20    35.80     0  01:06        1.19
  N877                 JUNCTION     0.67     1.40    36.00     0  01:06        1.29
  N878                 JUNCTION     1.03     1.20    35.40     0  00:44        1.20
  N879                 JUNCTION     1.01     1.33    35.53     0  02:33        1.21
  N880                 JUNCTION     0.71     1.21    35.71     0  00:35        0.90
  N881                 JUNCTION     0.42     1.20    36.00     0  00:35        0.64
  N882                 JUNCTION     1.09     1.37    35.47     0  02:33        1.31
  N884                 JUNCTION     0.00     0.00    35.70     0  00:00        0.00
  N885                 JUNCTION     0.15     0.31    35.61     0  01:20        0.30
  N886                 JUNCTION     0.21     0.45    35.45     0  01:20        0.45
  N889                 JUNCTION     0.34     0.57    35.37     0  01:21        0.56
  N890                 JUNCTION     0.43     0.63    35.33     0  01:22        0.63
  N892                 JUNCTION     0.23     0.35    34.95     0  01:22        0.35
  N893                 JUNCTION     0.09     0.18    39.68     0  01:20        0.17
  N894                 JUNCTION     0.14     0.35    40.55     0  01:20        0.32
  N895                 JUNCTION     0.32     0.78    40.98     0  01:20        0.70
  N896                 JUNCTION     0.20     0.50    40.90     0  01:19        0.48
  N897                 JUNCTION     0.12     0.24    40.44     0  01:20        0.24
  N898                 JUNCTION     0.13     0.26    38.76     0  01:20        0.25
  N899                 JUNCTION     0.15     0.31    37.91     0  01:20        0.30
  N9                   JUNCTION     0.00     0.00    16.30     0  00:00        0.00
  N90                  JUNCTION     0.00     0.00    39.80     0  00:00        0.00
  N900                 JUNCTION     0.12     0.23    37.23     0  01:20        0.22
  N901                 JUNCTION     0.00     0.00    44.00     0  00:00        0.00
  N902                 JUNCTION     0.00     0.00    44.90     0  00:00        0.00
  N904                 JUNCTION     0.61     0.80    34.10     0  01:20        0.80
  N905                 JUNCTION     0.22     0.34    33.94     0  01:22        0.34
  N906                 JUNCTION     0.00     0.00    51.80     0  00:00        0.00
  N907                 JUNCTION     0.00     0.00    51.60     0  00:00        0.00
  N908                 JUNCTION     0.00     0.00    49.80     0  00:00        0.00
  N909                 JUNCTION     0.00     0.00    48.60     0  00:00        0.00
  N91                  JUNCTION     0.00     0.00    32.40     0  00:00        0.00
  N910                 JUNCTION     0.20     0.41    43.21     0  01:20        0.41
  N911                 JUNCTION     0.00     0.00    44.20     0  00:00        0.00
  N912                 JUNCTION     0.00     0.00    44.80     0  00:00        0.00
  N913                 JUNCTION     0.00     0.00    44.50     0  00:00        0.00
  N914                 JUNCTION     0.00     0.00    45.70     0  00:00        0.00
  N915                 JUNCTION     0.00     0.00    46.80     0  00:00        0.00
  N916                 JUNCTION     0.16     0.24    32.74     0  01:22        0.24
  N918                 JUNCTION     0.00     0.00    41.30     0  00:00        0.00
  N919                 JUNCTION     0.07     0.14    39.84     0  01:20        0.13
  N92                  JUNCTION     0.00     0.00    27.00     0  00:00        0.00
  N920                 JUNCTION     0.11     0.22    42.62     0  01:20        0.21
  N922                 JUNCTION     0.00     0.00    32.20     0  00:00        0.00
  N923                 JUNCTION     0.00     0.00    24.10     0  00:00        0.00
  N924                 JUNCTION     0.22     0.65    21.55     0  01:20        0.61
  N925                 JUNCTION     0.61     0.98    21.48     0  01:21        0.98
  N926                 JUNCTION     0.13     0.26    23.76     0  01:20        0.26
  N927                 JUNCTION     0.09     0.17    26.17     0  01:20        0.17
  N928                 JUNCTION     0.08     0.16    34.86     0  01:20        0.16
  N929                 JUNCTION     1.98     4.90    17.10     0  01:14        3.74
  N93                  JUNCTION     0.28     0.53    26.23     0  01:21        0.52
  N931                 JUNCTION     0.95     2.84    15.74     0  01:21        2.03
  N932                 JUNCTION     0.00     0.00    68.50     0  00:00        0.00
  N933                 JUNCTION     0.34     0.64    50.74     0  01:20        0.63
  N934                 JUNCTION     0.01     0.16    40.06     0  01:21        0.15
  N935                 JUNCTION     0.00     0.00    40.20     0  00:00        0.00
  N936                 JUNCTION     0.00     0.00    45.80     0  00:00        0.00
  N937                 JUNCTION     0.11     0.21    55.91     0  01:20        0.21
  N938                 JUNCTION     0.12     0.25    60.65     0  01:20        0.24
  N939                 JUNCTION     0.00     0.00    47.60     0  00:00        0.00
  N94                  JUNCTION     0.00     0.00    21.70     0  00:00        0.00
  N940                 JUNCTION     0.00     0.00    45.30     0  00:00        0.00
  N941                 JUNCTION     0.00     0.00    45.60     0  00:00        0.00
  N942                 JUNCTION     0.00     0.00    43.50     0  00:00        0.00
  N943                 JUNCTION     0.00     0.00    38.50     0  00:00        0.00
  N944                 JUNCTION     0.00     0.00    39.10     0  00:00        0.00
  N945                 JUNCTION     0.00     0.00    38.10     0  00:00        0.00
  N946                 JUNCTION     0.00     0.00    38.80     0  00:00        0.00
  N947                 JUNCTION     0.00     0.00    60.50     0  00:00        0.00
  N948                 JUNCTION     0.00     0.00    54.30     0  00:00        0.00
  N949                 JUNCTION     0.00     0.00    63.40     0  00:00        0.00
  N95                  JUNCTION     0.00     0.00    19.10     0  00:00        0.00
  N950                 JUNCTION     0.00     0.00    43.10     0  00:00        0.00
  N951                 JUNCTION     0.00     0.00     1.70     0  00:00        0.00
  N952                 JUNCTION     0.00     0.00    55.90     0  00:00        0.00
  N953                 JUNCTION     0.00     0.00    24.50     0  00:00        0.00
  N954                 JUNCTION     0.59     0.83    33.13     0  01:22        0.83
  N955                 JUNCTION     0.46     0.67    35.37     0  01:22        0.66
  N956                 JUNCTION     0.42     0.65    35.45     0  01:21        0.65
  N957                 JUNCTION     0.42     0.65    35.45     0  01:21        0.65
  N958                 JUNCTION     0.42     0.66    35.46     0  01:22        0.65
  N959                 JUNCTION     0.00     0.00    23.30     0  00:00        0.00
  N96                  JUNCTION     0.00     0.00    15.60     0  00:00        0.00
  N960                 JUNCTION     0.16     0.39    23.19     0  01:19        0.39
  N961                 JUNCTION     0.51     0.84    17.94     0  01:22        0.83
  N962                 JUNCTION     0.91     1.26    17.96     0  01:22        1.26
  N963                 JUNCTION     0.37     0.59    20.59     0  01:21        0.59
  N964                 JUNCTION     0.83     1.36    16.36     0  01:21        1.36
  N965                 JUNCTION     0.00     0.00    51.60     0  00:00        0.00
  N966                 JUNCTION     0.16     0.29    32.79     0  01:22        0.29
  N967                 JUNCTION     0.52     0.99     3.59     0  01:21        0.99
  N968                 JUNCTION     0.00     0.00    33.60     0  00:00        0.00
  N969                 JUNCTION     0.00     0.00    35.80     0  00:00        0.00
  N970                 JUNCTION     0.00     0.00    35.60     0  00:00        0.00
  N971                 JUNCTION     0.00     0.00    35.90     0  00:00        0.00
  N974                 JUNCTION     0.54     1.20    53.80     0  00:37        1.20
  N98                  JUNCTION     0.00     0.00    10.90     0  00:00        0.00
  N99                  JUNCTION     0.04     1.20     4.10     0  01:18        1.20
  N641                 JUNCTION     0.61     1.93    25.23     0  01:21        1.41
  N748                 JUNCTION     1.13     2.36    24.76     0  01:21        2.35
  Out1                 OUTFALL      0.00     0.00    59.30     0  00:00        0.00
  Out2                 OUTFALL      0.52     0.99     3.59     0  01:21        0.98
  Out3                 OUTFALL      0.00     0.00    10.40     0  00:00        0.00
  Out4                 OUTFALL      1.14     1.80     5.10     0  01:19        1.80
  Out5                 OUTFALL      0.83     1.35    16.35     0  01:22        1.35
  Out6                 OUTFALL      0.61     1.00    -1.50     0  01:21        1.00
  Out7                 OUTFALL      0.34     0.57    23.17     0  01:20        0.57
  Out8                 OUTFALL      0.28     0.50    21.10     0  01:23        0.49
  Out9                 OUTFALL      0.48     0.81    17.91     0  01:22        0.80
  Out10                OUTFALL      1.08     2.25    24.65     0  01:22        2.24
  Out11                OUTFALL      0.48     0.97    26.77     0  01:23        0.97
  
  
  *******************
  Node Inflow Summary
  *******************
  
  -------------------------------------------------------------------------------------------------
                                  Maximum  Maximum                  Lateral       Total        Flow
                                  Lateral    Total  Time of Max      Inflow      Inflow     Balance
                                   Inflow   Inflow   Occurrence      Volume      Volume       Error
  Node                 Type           CMS      CMS  days hr:min    10^6 ltr    10^6 ltr     Percent
  -------------------------------------------------------------------------------------------------
  N1                   JUNCTION     0.000    0.000     0  00:00           0           0       0.000 ltr
  N10                  JUNCTION     0.000    0.000     0  00:00           0           0       0.000 ltr
  N100                 JUNCTION     6.523    6.523     0  01:20        22.4        22.4       0.017
  N101                 JUNCTION     0.000    0.000     0  00:00           0           0       0.000 ltr
  N102                 JUNCTION     0.000    0.000     0  00:00           0           0       0.000 ltr
  N103                 JUNCTION     0.000    0.000     0  00:00           0           0       0.000 ltr
  N104                 JUNCTION     0.000    0.000     0  00:00           0           0       0.000 ltr
  N108                 JUNCTION     0.000    0.000     0  00:00           0           0       0.000 ltr
  N109                 JUNCTION     0.000    0.000     0  00:00           0           0       0.000 ltr
  N11                  JUNCTION     0.000    0.000     0  00:00           0           0       0.000 ltr
  N110                 JUNCTION     0.000    0.000     0  00:00           0           0       0.000 ltr
  N111                 JUNCTION     0.000    6.522     0  01:20           0        22.4       0.056
  N112                 JUNCTION     0.000    5.242     0  01:19           0        22.1      -0.058
  N113                 JUNCTION     0.000    5.243     0  01:19           0        22.2       0.002
  N114                 JUNCTION     0.000    5.267     0  01:19           0        22.2       0.542
  N117                 JUNCTION     0.000    5.743     0  01:22           0        22.1       3.782
  N118                 JUNCTION     0.000    5.673     0  01:23           0        21.3       1.250
  N119                 JUNCTION     0.000    5.960     0  01:22           0        23.3       0.058
  N12                  JUNCTION     0.000    0.000     0  00:00           0           0       0.000 ltr
  N120                 JUNCTION     0.000    5.963     0  01:22           0        23.2       0.034
  N128                 JUNCTION     0.000    6.039     0  01:21           0        23.2       0.055
[...]
  C734                   23.72   0.01  0.00  0.00  0.81  0.18  0.00  0.00  0.01  0.00
  C735                   21.07   1.00  0.00  0.00  0.00  0.00  0.00  0.00  0.00  0.00
  C736                   26.14   0.03  0.00  0.00  0.87  0.09  0.00  0.00  0.02  0.00
  C737                   37.29   0.02  0.00  0.00  0.40  0.58  0.00  0.00  0.01  0.00
  C738                   34.34   0.01  0.00  0.00  0.70  0.30  0.00  0.00  0.01  0.00
  C739                    9.84   0.02  0.98  0.00  0.00  0.00  0.00  0.00  0.00  0.00
  C74                     1.00   0.41  0.59  0.00  0.00  0.00  0.00  0.00  0.00  0.00
  C740                    3.72   0.02  0.01  0.00  0.97  0.00  0.00  0.00  0.00  0.00
  C741                   34.34   0.03  0.00  0.00  0.21  0.75  0.00  0.00  0.00  0.00
  C742                    1.00   0.01  0.00  0.00  0.99  0.00  0.00  0.00  0.00  0.00
  C743                    2.80   0.06  0.00  0.00  0.00  0.94  0.00  0.00  0.34  0.00
  C745                   40.06   0.05  0.00  0.00  0.18  0.77  0.00  0.00  0.01  0.00
  C746                    1.52   1.00  0.00  0.00  0.00  0.00  0.00  0.00  0.00  0.00
  C747                    1.77   0.01  0.00  0.00  0.67  0.31  0.00  0.00  0.63  0.00
  C748                    1.43   0.01  0.00  0.00  0.99  0.00  0.00  0.00  0.02  0.00
  C749                    2.14   0.01  0.01  0.00  0.98  0.00  0.00  0.00  0.03  0.00
  C75                     1.00   1.00  0.00  0.00  0.00  0.00  0.00  0.00  0.00  0.00
  C76                     1.00   1.00  0.00  0.00  0.00  0.00  0.00  0.00  0.00  0.00
  C77                     1.00   1.00  0.00  0.00  0.00  0.00  0.00  0.00  0.00  0.00
  C78                     1.00   1.00  0.00  0.00  0.00  0.00  0.00  0.00  0.00  0.00
  C79                     1.00   1.00  0.00  0.00  0.00  0.00  0.00  0.00  0.00  0.00
  C8                      1.17   0.03  0.97  0.00  0.00  0.00  0.00  0.00  0.00  0.00
  C80                     1.00   1.00  0.00  0.00  0.00  0.00  0.00  0.00  0.00  0.00
  C81                     1.00   1.00  0.00  0.00  0.00  0.00  0.00  0.00  0.00  0.00
  C83                     1.99   1.00  0.00  0.00  0.00  0.00  0.00  0.00  0.00  0.00
  C84                     7.83   0.01  0.99  0.00  0.00  0.00  0.00  0.00  0.00  0.00
  C85                     1.00   1.00  0.00  0.00  0.00  0.00  0.00  0.00  0.00  0.00
  C86                     1.66   1.00  0.00  0.00  0.00  0.00  0.00  0.00  0.00  0.00
  C87                     2.49   0.01  0.99  0.00  0.00  0.00  0.00  0.00  0.00  0.00
  C88                     1.08   0.01  0.00  0.00  0.99  0.01  0.00  0.00  0.02  0.00
  C89                     1.39   0.01  0.04  0.00  0.95  0.00  0.00  0.00  0.24  0.00
  C9                      2.65   0.03  0.00  0.00  0.00  0.97  0.00  0.00  0.87  0.00
  C90                     1.00   0.01  0.00  0.00  0.99  0.00  0.00  0.00  0.00  0.00
  C91                     1.35   0.01  0.00  0.00  0.46  0.53  0.00  0.00  0.11  0.00
  C92                     1.00   0.01  0.00  0.00  0.42  0.57  0.00  0.00  0.44  0.00
  C93                     1.00   0.01  0.00  0.00  0.29  0.69  0.00  0.00  0.07  0.00
  C94                     2.30   0.01  0.01  0.00  0.24  0.74  0.00  0.00  0.61  0.00
  C95                     1.00   0.01  0.01  0.00  0.94  0.04  0.00  0.00  0.00  0.00
  C96                     2.14   0.01  0.01  0.00  0.07  0.92  0.00  0.00  0.21  0.00
  C97                     1.00   0.01  0.04  0.00  0.95  0.00  0.00  0.00  0.24  0.00
  C98                     1.00   1.00  0.00  0.00  0.00  0.00  0.00  0.00  0.00  0.00
  C99                     2.00   1.00  0.00  0.00  0.00  0.00  0.00  0.00  0.00  0.00
  C750                    1.44   0.01  0.00  0.00  0.98  0.01  0.00  0.00  0.00  0.00
  C399                    2.66   0.01  0.00  0.00  0.00  0.99  0.00  0.00  0.35  0.00
  C744                    3.08   0.01  0.00  0.00  0.00  0.99  0.00  0.00  0.35  0.00
  C751                    2.03   0.01  0.00  0.00  0.93  0.06  0.00  0.00  0.00  0.00
  C33                     4.62   0.01  0.99  0.00  0.00  0.00  0.00  0.00  0.00  0.00
  C752                   31.15   0.01  0.00  0.00  0.75  0.24  0.00  0.00  0.02  0.00
  
  
  *************************
  Conduit Surcharge Summary
  *************************
  
  ----------------------------------------------------------------------------
                                                           Hours        Hours 
                         --------- Hours Full --------   Above Full   Capacity
  Conduit                Both Ends  Upstream  Dnstream   Normal Flow   Limited
  ----------------------------------------------------------------------------
  C152                        0.14      0.14      0.65      0.01         0.01
  C153                        0.01      0.01      0.01      0.01         0.01
  C154                        0.01      0.01      0.01      2.60         0.01
  C161                        1.87      1.92      1.87      2.48         1.49
  C162                        0.26      0.26      1.92      0.01         0.01
  C163                        0.01      0.01      0.27      0.01         0.01
  C164                        0.11      0.11      0.45      0.01         0.01
  C166                        0.01      0.01      0.03      0.01         0.01
  C170                        0.01      0.01      0.01      0.04         0.01
  C171                        0.01      0.01      2.18      0.01         0.01
  C172                        0.01      0.01      1.98      0.01         0.01
  C173                        0.01      0.05      0.01      2.44         0.01
  C174                        0.01      0.01      0.92      0.01         0.01
  C176                        0.01      0.01      0.01      0.06         0.01
  C177                        0.01      0.01      1.36      0.01         0.01
  C178                        0.01      0.01      0.01      0.12         0.01
  C179                        2.28      2.28      2.97      0.01         0.01
  C180                        2.28      2.28      2.97      0.01         0.01
  C181                        1.57      1.57      2.62      0.01         0.01
  C185                        0.01      0.01      0.01      0.01         0.01
  C186                        0.01      0.01      0.09      0.01         0.01
  C187                        0.09      0.09      2.90      0.01         0.01
  C188                        1.61      1.61      1.92      0.01         0.01
  C195                        1.57      1.57      2.08      0.01         0.01
  C196                        1.99      1.99      2.08      0.01         0.01
  C197                        1.99      1.99      2.08      0.01         0.10
  C198                        0.85      0.94      0.86      1.60         0.55
  C199                        0.71      0.87      0.73      1.84         0.47
  C200                        0.73      0.73      1.61      0.01         0.01
  C204                        1.87      1.87      2.65      0.01         0.01
  C205                        1.73      1.73      2.22      0.01         0.01
  C206                        2.22      2.22      2.76      0.01         0.01
  C214                        2.03      2.03      2.11      0.01         0.01
  C215                        2.10      2.12      2.11      2.26         1.20
  C216                        2.11      2.12      2.12      2.21         1.24
  C217                        2.12      2.13      2.12      2.21         1.32
  C218                        2.12      2.13      2.13      2.14         1.39
  C219                        0.01      0.01      2.13      0.01         0.01
  C229                        2.08      2.09      2.09      1.15         0.94
  C230                        0.71      0.71      2.09      0.01         0.01
  C231                        0.47      0.73      0.47      2.66         0.42
  C244                        0.01      0.01      0.22      0.01         0.01
  C245                        0.90      1.05      0.94      1.22         0.57
  C248                        0.01      0.01      1.97      0.01         0.01
  C249                        0.02      0.03      0.47      0.01         0.01
  C250                        0.01      0.03      0.01      2.59         0.01
  C257                        0.02      0.02      1.98      0.01         0.01
  C258                        0.06      0.06      1.94      0.01         0.01
  C259                        0.80      0.94      0.83      1.02         0.44
  C260                        0.66      0.83      0.70      1.28         0.29
  C263                        1.09      1.28      1.09      1.99         0.56
  C275                        1.41      1.42      1.69      0.01         0.21
  C276                        0.97      0.98      1.42      0.01         0.06
  C277                        0.01      0.01      0.98      0.01         0.01
  C281                        0.01      0.01      0.01      1.95         0.01
  C292                        0.05      0.05      0.07      0.01         0.01
  C293                        0.03      0.03      0.05      0.01         0.01
  C302                        0.14      0.53      0.14      2.56         0.13
  C303                        0.07      0.07      0.18      0.01         0.01
  C304                        0.12      0.18      0.12      2.47         0.12
  C305                        0.09      0.12      0.09      2.38         0.09
  C306                        0.06      0.09      0.06      2.37         0.06
  C307                        0.01      0.06      0.01      0.13         0.01
  C308                        0.08      0.08      0.53      0.01         0.01
  C309                        2.40      2.40      2.41      1.56         1.21
  C31                         0.01      0.01      0.01      0.59         0.01
  C310                        0.13      0.13      2.28      0.01         0.01
  C311                        0.05      0.05      0.13      0.01         0.01
  C312                        0.04      0.04      0.08      0.01         0.01
  C313                        0.01      0.01      0.01      0.07         0.01
  C315                        0.01      0.01      0.24      0.01         0.01
  C325                        0.01      0.05      0.01      0.13         0.01
  C327                        0.01      0.01      0.05      0.01         0.01
  C341                        1.70      1.70      2.26      0.01         0.01
  C345                        0.32      0.32      2.20      0.01         0.01
  C348                        0.01      0.01      1.01      1.26         0.01
  C354                        0.01      0.01      0.01      2.20         0.01
  C355                        0.01      0.01      0.01      0.01         0.01
  C357                        0.12      0.12      0.87      0.01         0.01
  C358                        0.86      0.87      1.29      0.09         0.15
  C359                        1.28      1.28      1.80      0.02         0.10
  C366                        0.87      0.87      1.95      0.01         0.01
  C367                        0.22      0.22      2.04      0.01         0.01
  C368                        0.01      0.01      0.22      0.01         0.01
  C374                        0.01      0.01      2.60      0.01         0.01
  C375                        0.01      0.01      2.12      0.01         0.01
  C377                        0.38      0.76      0.38      2.83         0.38
  C378                        2.09      2.09      2.53      0.09         0.01
  C379                        0.76      0.76      2.23      0.05         0.03
  C380                        2.22      2.23      2.22      2.63         2.04
  C381                        0.16      0.16      2.22      0.11         0.01
  C382                        0.10      0.16      0.10      0.31         0.10
  C383                        0.09      0.10      0.09      0.17         0.09
  C385                        0.09      0.09      2.85      0.01         0.01
  C395                        0.01      0.01      0.01      0.13         0.01
  C396                        0.01      0.01      0.01      0.01         0.01
  C409                        2.14      2.14      2.14      2.12         1.19
  C410                        2.14      2.14      2.14      2.11         1.16
  C411                        2.14      2.14      2.14      2.09         1.09
  C414                        0.01      0.01      0.01      0.01         0.01
  C416                        0.01      0.01      2.82      0.01         0.01
  C420                        0.01      0.01      2.79      0.01         0.01
  C428                        0.01      0.01      0.21      0.01         0.01
  C429                        0.01      0.01      0.21      0.01         0.01
  C430                        2.00      2.01      2.00      2.04         1.05
  C431                        0.30      0.33      0.30      1.45         0.16
  C432                        0.01      0.01      0.30      0.01         0.01
  C433                        0.01      0.01      0.01      0.01         0.01
  C436                        0.01      0.01      0.48      0.01         0.01
  C439                        0.11      0.11      2.79      0.01         0.01
  C440                        0.17      0.37      0.17      2.72         0.16
  C441                        0.37      0.39      0.37      2.45         0.36
  C442                        0.32      0.32      0.39      0.01         0.03
  C443                        0.21      0.21      0.32      0.01         0.01
  C444                        0.21      0.22      0.21      2.39         0.19
  C449                        0.13      0.18      0.13      0.16         0.13
  C450                        0.13      0.13      0.16      0.01         0.01
  C451                        0.01      0.16      0.01      0.01         0.01
  C452                        0.08      0.08      0.13      0.01         0.01
  C455                        0.08      0.08      0.13      0.01         0.01
  C456                        0.13      0.13      0.22      0.01         0.01
  C468                        0.01      0.01      0.09      0.01         0.01
  C484                        0.01      0.01      0.34      0.35         0.01
  C488                        0.34      0.34      2.94      0.01         0.01
  C49                         0.07      0.07      0.33      0.01         0.01
  C505                        0.16      0.16      2.90      0.01         0.01
  C509                        0.01      0.01      0.40      0.01         0.01
  C510                        0.40      0.40      2.76      0.01         0.01
  C511                        2.28      2.28      2.76      0.01         0.01
  C516                        0.11      0.11      0.20      0.01         0.01
  C517                        0.18      0.20      0.19      0.21         0.18
  C519                        0.01      0.01      0.01      0.05         0.01
  C524                        0.01      0.01      0.19      0.01         0.01
  C526                        0.01      0.01      0.11      0.01         0.01
  C540                        0.01      0.01      2.10      0.01         0.01
  C541                        2.80      2.80      2.95      0.01         0.01
  C542                        0.01      0.01      2.34      0.01         0.01
  C543                        0.01      0.01      2.10      0.01         0.01
  C558                        0.01      0.02      0.01      2.56         0.01
  C57                         0.01      0.01      1.84      0.01         0.01
  C570                        0.01      0.01      2.15      0.01         0.01
  C571                        2.80      2.80      2.81      0.14         1.33
  C572                        0.01      0.01      0.34      0.01         0.01
  C573                        0.34      0.34      2.25      0.01         0.02
  C574                        1.97      2.02      1.97      2.53         1.84
  C575                        1.97      1.97      2.21      0.01         0.01
  C576                        2.83      2.83      2.88      0.01         0.01
  C577                        2.12      2.12      2.83      0.01         0.01
  C58                         0.01      0.36      0.01      1.48         0.01
  C587                        0.01      0.01      0.01      1.79         0.01
  C59                         0.36      1.46      0.36      2.96         0.36
  C60                         0.16      0.16      1.46      0.01         0.01
  C609                        0.01      0.01      0.10      0.01         0.01
  C615                        0.01      0.01      2.01      0.01         0.01
  C617                        0.01      0.01      0.59      0.01         0.01
  C619                        0.04      0.04      1.84      0.10         0.01
  C620                        0.01      0.04      0.01      0.18         0.01
  C644                        0.45      0.45      1.03      0.01         0.01
  C646                        0.01      0.01      2.67      0.01         0.01
  C647                        1.80      1.87      1.80      2.48         1.41
  C648                        0.55      0.55      1.00      0.01         0.07
  C654                        0.01      0.14      0.01      2.48         0.01
  C664                        2.02      2.02      2.71      0.01         0.01
  C667                        0.69      0.69      1.08      0.01         0.04
  C668                        1.07      1.08      1.28      0.01         0.18
  C669                        0.95      1.09      0.95      1.96         0.44
  C676                        0.01      0.01      2.32      0.01         0.01
  C679                        0.01      0.01      0.01      0.01         0.01
  C682                        1.01      1.80      1.01      2.79         1.01
  C683                        0.76      1.21      0.76      2.85         0.75
  C686                        0.01      0.13      0.01      2.94         0.01
  C687                        0.95      0.95      1.98      0.01         0.01
  C696                        0.01      0.01      1.58      0.01         0.01
  C701                        0.01      0.01      2.21      0.01         0.01
  C706                        2.28      2.28      2.28      0.24         1.07
  C712                        0.01      0.01      0.06      0.01         0.01
  C721                        0.01      0.01      1.35      0.01         0.01
  C732                        1.81      1.81      2.58      0.01         0.01
  C734                        0.01      0.01      0.01      0.32         0.01
  C736                        0.01      0.09      0.01      2.03         0.06
  C742                        0.13      0.38      0.13      2.75         0.13
  C747                        0.01      0.01      1.76      0.01         0.01
  C748                        1.98      1.98      2.60      0.01         0.01
  C749                        1.00      1.00      1.92      0.01         0.01
  C88                         1.85      1.85      2.58      0.01         0.01
  C89                         0.36      0.36      2.22      0.01         0.01
  C9                          0.01      0.01      0.09      0.01         0.01
  C90                         0.47      1.14      0.47      2.62         0.46
  C91                         0.01      0.04      0.01      2.22         0.01
  C92                         0.01      0.01      0.04      0.01         0.01
  C93                         0.01      0.04      0.01      2.35         0.01
  C94                         0.01      0.01      0.10      0.01         0.01
  C97                         0.35      0.35      2.22      0.01         0.01
  C750                        0.01      0.01      0.01      0.27         0.01
  C751                        0.01      0.01      0.01      2.05         0.01
  

  Analysis begun on:  Fri Nov 29 08:57:11 2019
  Analysis ended on:  Fri Nov 29 08:57:14 2019
  Total elapsed time: 00:00:03