
  EPA STORM WATER MANAGEMENT MODEL - VERSION 5.1 (Build 5.1.013)
  --------------------------------------------------------------

  WARNING 03: negative offset ignored for Link 30000419
  WARNING 03: negative offset ignored for Link 30000420
  WARNING 04: minimum elevation drop used for Conduit 30005683
  WARNING 04: minimum elevation drop used for Conduit 30005773
  WARNING 03: negative offset ignored for Link 30009512
  WARNING 03: negative offset ignored for Link 30011392
  WARNING 03: negative offset ignored for Link 30013778
  WARNING 08: elevation drop exceeds length for Conduit 30015757
  WARNING 03: negative offset ignored for Link 30016267
  WARNING 03: negative offset ignored for Link 30022391
  WARNING 04: minimum elevation drop used for Conduit 30029303
  WARNING 03: negative offset ignored for Link 30032672
  WARNING 03: negative offset ignored for Link 30032672
  WARNING 04: minimum elevation drop used for Conduit 30035871
  WARNING 03: negative offset ignored for Link 30037473
  WARNING 04: minimum elevation drop used for Conduit 30038850
  WARNING 03: negative offset ignored for Link 30388452
  WARNING 02: maximum depth increased for Node 41839
  
  **********************           Volume        Volume
  Rainfall Dependent I/I        acre-feet      10^6 gal
  **********************        ---------     ---------
  Sewershed Rainfall ......        51.225        16.692
  RDII Produced ...........         0.217         0.071
  RDII Ratio ..............         0.004
  
  
  *********************************************************
  NOTE: The summary statistics displayed in this report are
  based on results found at every computational time step,  
  not just on results from each reporting time step.
  *********************************************************
  
  ****************
  Analysis Options
  ****************
  Flow Units ............... GPM
  Process Models:
    Rainfall/Runoff ........ YES
    RDII ................... YES
    Snowmelt ............... NO
    Groundwater ............ NO
    Flow Routing ........... YES
    Ponding Allowed ........ YES
    Water Quality .......... NO
  Infiltration Method ...... CURVE_NUMBER
  Flow Routing Method ...... DYNWAVE
  Surcharge Method ......... EXTRAN
  Starting Date ............ 12/12/2015 00:00:00
  Ending Date .............. 12/14/2015 00:00:00
  Antecedent Dry Days ...... 0.0
  Report Time Step ......... 00:05:00
  Wet Time Step ............ 00:01:00
  Dry Time Step ............ 00:05:00
  Routing Time Step ........ 10.00 sec
  Variable Time Step ....... YES
  Maximum Trials ........... 8
  Number of Threads ........ 1
  Head Tolerance ........... 0.000100 ft
  
  
  **************************        Volume         Depth
  Runoff Quantity Continuity     acre-feet        inches
  **************************     ---------       -------
  Total Precipitation ......         0.000         0.000
  Evaporation Loss .........         0.000         0.000
  Infiltration Loss ........         0.000         0.000
  Surface Runoff ...........         0.000         0.000
  Final Storage ............         0.000         0.000
  Continuity Error (%) .....         0.000
  
  
  **************************        Volume        Volume
  Flow Routing Continuity        acre-feet      10^6 gal
  **************************     ---------     ---------
  Dry Weather Inflow .......         0.000         0.000
  Wet Weather Inflow .......         0.000         0.000
  Groundwater Inflow .......         0.000         0.000
  RDII Inflow ..............         0.000         0.000
  External Inflow ..........         0.000         0.000
  External Outflow .........         0.000         0.000
  Flooding Loss ............         0.000         0.000
  Evaporation Loss .........         0.000         0.000
  Exfiltration Loss ........         0.000         0.000
  Initial Stored Volume ....         0.010         0.003
  Final Stored Volume ......         0.010         0.003
  Continuity Error (%) .....         0.000
  
  
  ***************************
  Time-Step Critical Elements
  ***************************
  None
  
  
  ********************************
  Highest Flow Instability Indexes
  ********************************
  All links are stable.
  
  
  ***************************
  Subcatchment Runoff Summary
  ***************************
  
  ------------------------------------------------------------------------------------------------------------------------------
                            Total      Total      Total      Total     Imperv       Perv      Total       Total     Peak  Runoff
                           Precip      Runon       Evap      Infil     Runoff     Runoff     Runoff      Runoff   Runoff   Coeff
  Subcatchment                 in         in         in         in         in         in         in    10^6 gal      GPM
  ------------------------------------------------------------------------------------------------------------------------------
  SUB_001                    0.00       0.00       0.00       0.00       0.00       0.00       0.00        0.00     0.00   0.000
  SUB_002                    0.00       0.00       0.00       0.00       0.00       0.00       0.00        0.00     0.00   0.000
  SUB_003                    0.00       0.00       0.00       0.00       0.00       0.00       0.00        0.00     0.00   0.000
  SUB_004                    0.00       0.00       0.00       0.00       0.00       0.00       0.00        0.00     0.00   0.000
  SUB_005                    0.00       0.00       0.00       0.00       0.00       0.00       0.00        0.00     0.00   0.000
  SUB_006                    0.00       0.00       0.00       0.00       0.00       0.00       0.00        0.00     0.00   0.000
  SUB_007                    0.00       0.00       0.00       0.00       0.00       0.00       0.00        0.00     0.00   0.000
  SUB_008                    0.00       0.00       0.00       0.00       0.00       0.00       0.00        0.00     0.00   0.000
  SUB_009                    0.00       0.00       0.00       0.00       0.00       0.00       0.00        0.00     0.00   0.000
  SUB_011                    0.00       0.00       0.00       0.00       0.00       0.00       0.00        0.00     0.00   0.000
  SUB_012                    0.00       0.00       0.00       0.00       0.00       0.00       0.00        0.00     0.00   0.000
  SUB_013                    0.00       0.00       0.00       0.00       0.00       0.00       0.00        0.00     0.00   0.000
  SUB_014                    0.00       0.00       0.00       0.00       0.00       0.00       0.00        0.00     0.00   0.000
  SUB_015                    0.00       0.00       0.00       0.00       0.00       0.00       0.00        0.00     0.00   0.000
  SUB_016                    0.00       0.00       0.00       0.00       0.00       0.00       0.00        0.00     0.00   0.000
  SUB_017                    0.00       0.00       0.00       0.00       0.00       0.00       0.00        0.00     0.00   0.000
  SUB_018                    0.00       0.00       0.00       0.00       0.00       0.00       0.00        0.00     0.00   0.000
  SUB_020                    0.00       0.00       0.00       0.00       0.00       0.00       0.00        0.00     0.00   0.000
  SUB_021                    0.00       0.00       0.00       0.00       0.00       0.00       0.00        0.00     0.00   0.000
  SUB_022                    0.00       0.00       0.00       0.00       0.00       0.00       0.00        0.00     0.00   0.000
  SUB_023                    0.00       0.00       0.00       0.00       0.00       0.00       0.00        0.00     0.00   0.000
  SUB_024                    0.00       0.00       0.00       0.00       0.00       0.00       0.00        0.00     0.00   0.000
  SUB_025                    0.00       0.00       0.00       0.00       0.00       0.00       0.00        0.00     0.00   0.000
  SUB_026                    0.00       0.00       0.00       0.00       0.00       0.00       0.00        0.00     0.00   0.000
  SUB_027                    0.00       0.00       0.00       0.00       0.00       0.00       0.00        0.00     0.00   0.000
  SUB_028                    0.00       0.00       0.00       0.00       0.00       0.00       0.00        0.00     0.00   0.000
  SUB_029                    0.00       0.00       0.00       0.00       0.00       0.00       0.00        0.00     0.00   0.000
  SUB_030                    0.00       0.00       0.00       0.00       0.00       0.00       0.00        0.00     0.00   0.000
  SUB_031                    0.00       0.00       0.00       0.00       0.00       0.00       0.00        0.00     0.00   0.000
  SUB_032                    0.00       0.00       0.00       0.00       0.00       0.00       0.00        0.00     0.00   0.000
  SUB_033                    0.00       0.00       0.00       0.00       0.00       0.00       0.00        0.00     0.00   0.000
  SUB_034                    0.00       0.00       0.00       0.00       0.00       0.00       0.00        0.00     0.00   0.000
  SUB_035                    0.00       0.00       0.00       0.00       0.00       0.00       0.00        0.00     0.00   0.000
  SUB_036                    0.00       0.00       0.00       0.00       0.00       0.00       0.00        0.00     0.00   0.000
  SUB_037                    0.00       0.00       0.00       0.00       0.00       0.00       0.00        0.00     0.00   0.000
  SUB_038                    0.00       0.00       0.00       0.00       0.00       0.00       0.00        0.00     0.00   0.000
  SUB_039                    0.00       0.00       0.00       0.00       0.00       0.00       0.00        0.00     0.00   0.000
  SUB_040                    0.00       0.00       0.00       0.00       0.00       0.00       0.00        0.00     0.00   0.000
  SUB_041                    0.00       0.00       0.00       0.00       0.00       0.00       0.00        0.00     0.00   0.000
  SUB_042                    0.00       0.00       0.00       0.00       0.00       0.00       0.00        0.00     0.00   0.000
  SUB_043                    0.00       0.00       0.00       0.00       0.00       0.00       0.00        0.00     0.00   0.000
  SUB_044                    0.00       0.00       0.00       0.00       0.00       0.00       0.00        0.00     0.00   0.000
  SUB_045                    0.00       0.00       0.00       0.00       0.00       0.00       0.00        0.00     0.00   0.000
  SUB_046                    0.00       0.00       0.00       0.00       0.00       0.00       0.00        0.00     0.00   0.000
  SUB_047                    0.00       0.00       0.00       0.00       0.00       0.00       0.00        0.00     0.00   0.000
  SUB_048                    0.00       0.00       0.00       0.00       0.00       0.00       0.00        0.00     0.00   0.000
  SUB_049                    0.00       0.00       0.00       0.00       0.00       0.00       0.00        0.00     0.00   0.000
  SUB_050                    0.00       0.00       0.00       0.00       0.00       0.00       0.00        0.00     0.00   0.000
  SUB_051                    0.00       0.00       0.00       0.00       0.00       0.00       0.00        0.00     0.00   0.000
  SUB_052                    0.00       0.00       0.00       0.00       0.00       0.00       0.00        0.00     0.00   0.000
  SUB_053                    0.00       0.00       0.00       0.00       0.00       0.00       0.00        0.00     0.00   0.000
  SUB_054                    0.00       0.00       0.00       0.00       0.00       0.00       0.00        0.00     0.00   0.000
  SUB_055                    0.00       0.00       0.00       0.00       0.00       0.00       0.00        0.00     0.00   0.000
  SUB_056                    0.00       0.00       0.00       0.00       0.00       0.00       0.00        0.00     0.00   0.000
  SUB_057                    0.00       0.00       0.00       0.00       0.00       0.00       0.00        0.00     0.00   0.000
  SUB_058                    0.00       0.00       0.00       0.00       0.00       0.00       0.00        0.00     0.00   0.000
  SUB_059                    0.00       0.00       0.00       0.00       0.00       0.00       0.00        0.00     0.00   0.000
  SUB_060                    0.00       0.00       0.00       0.00       0.00       0.00       0.00        0.00     0.00   0.000
  SUB_061                    0.00       0.00       0.00       0.00       0.00       0.00       0.00        0.00     0.00   0.000
  SUB_062                    0.00       0.00       0.00       0.00       0.00       0.00       0.00        0.00     0.00   0.000
  SUB_063                    0.00       0.00       0.00       0.00       0.00       0.00       0.00        0.00     0.00   0.000
  SUB_064                    0.00       0.00       0.00       0.00       0.00       0.00       0.00        0.00     0.00   0.000
  SUB_065                    0.00       0.00       0.00       0.00       0.00       0.00       0.00        0.00     0.00   0.000
  SUB_066                    0.00       0.00       0.00       0.00       0.00       0.00       0.00        0.00     0.00   0.000
  SUB_067                    0.00       0.00       0.00       0.00       0.00       0.00       0.00        0.00     0.00   0.000
  SUB_068                    0.00       0.00       0.00       0.00       0.00       0.00       0.00        0.00     0.00   0.000
  SUB_069                    0.00       0.00       0.00       0.00       0.00       0.00       0.00        0.00     0.00   0.000
  SUB_070                    0.00       0.00       0.00       0.00       0.00       0.00       0.00        0.00     0.00   0.000
  SUB_071                    0.00       0.00       0.00       0.00       0.00       0.00       0.00        0.00     0.00   0.000
  SUB_072                    0.00       0.00       0.00       0.00       0.00       0.00       0.00        0.00     0.00   0.000
  SUB_073                    0.00       0.00       0.00       0.00       0.00       0.00       0.00        0.00     0.00   0.000
  SUB_074                    0.00       0.00       0.00       0.00       0.00       0.00       0.00        0.00     0.00   0.000
  SUB_075                    0.00       0.00       0.00       0.00       0.00       0.00       0.00        0.00     0.00   0.000
  SUB_076                    0.00       0.00       0.00       0.00       0.00       0.00       0.00        0.00     0.00   0.000
  SUB_077                    0.00       0.00       0.00       0.00       0.00       0.00       0.00        0.00     0.00   0.000
  SUB_078                    0.00       0.00       0.00       0.00       0.00       0.00       0.00        0.00     0.00   0.000
  SUB_079                    0.00       0.00       0.00       0.00       0.00       0.00       0.00        0.00     0.00   0.000
  SUB_080                    0.00       0.00       0.00       0.00       0.00       0.00       0.00        0.00     0.00   0.000
  SUB_081                    0.00       0.00       0.00       0.00       0.00       0.00       0.00        0.00     0.00   0.000
  SUB_082                    0.00       0.00       0.00       0.00       0.00       0.00       0.00        0.00     0.00   0.000
  SUB_083                    0.00       0.00       0.00       0.00       0.00       0.00       0.00        0.00     0.00   0.000
  SUB_084                    0.00       0.00       0.00       0.00       0.00       0.00       0.00        0.00     0.00   0.000
  SUB_085                    0.00       0.00       0.00       0.00       0.00       0.00       0.00        0.00     0.00   0.000
  SUB_086                    0.00       0.00       0.00       0.00       0.00       0.00       0.00        0.00     0.00   0.000
  SUB_087                    0.00       0.00       0.00       0.00       0.00       0.00       0.00        0.00     0.00   0.000
  SUB_088                    0.00       0.00       0.00       0.00       0.00       0.00       0.00        0.00     0.00   0.000
  SUB_089                    0.00       0.00       0.00       0.00       0.00       0.00       0.00        0.00     0.00   0.000
  SUB_090                    0.00       0.00       0.00       0.00       0.00       0.00       0.00        0.00     0.00   0.000
  SUB_091                    0.00       0.00       0.00       0.00       0.00       0.00       0.00        0.00     0.00   0.000
  SUB_092                    0.00       0.00       0.00       0.00       0.00       0.00       0.00        0.00     0.00   0.000
  SUB_093                    0.00       0.00       0.00       0.00       0.00       0.00       0.00        0.00     0.00   0.000
  SUB_094                    0.00       0.00       0.00       0.00       0.00       0.00       0.00        0.00     0.00   0.000
  SUB_095                    0.00       0.00       0.00       0.00       0.00       0.00       0.00        0.00     0.00   0.000
  SUB_096                    0.00       0.00       0.00       0.00       0.00       0.00       0.00        0.00     0.00   0.000
  SUB_097                    0.00       0.00       0.00       0.00       0.00       0.00       0.00        0.00     0.00   0.000
  SUB_098                    0.00       0.00       0.00       0.00       0.00       0.00       0.00        0.00     0.00   0.000
  SUB_099                    0.00       0.00       0.00       0.00       0.00       0.00       0.00        0.00     0.00   0.000
  SUB_100                    0.00       0.00       0.00       0.00       0.00       0.00       0.00        0.00     0.00   0.000
  SUB_101                    0.00       0.00       0.00       0.00       0.00       0.00       0.00        0.00     0.00   0.000
  SUB_102                    0.00       0.00       0.00       0.00       0.00       0.00       0.00        0.00     0.00   0.000
  SUB_103                    0.00       0.00       0.00       0.00       0.00       0.00       0.00        0.00     0.00   0.000
  SUB_104                    0.00       0.00       0.00       0.00       0.00       0.00       0.00        0.00     0.00   0.000
  SUB_105                    0.00       0.00       0.00       0.00       0.00       0.00       0.00        0.00     0.00   0.000
  SUB_106                    0.00       0.00       0.00       0.00       0.00       0.00       0.00        0.00     0.00   0.000
  SUB_107                    0.00       0.00       0.00       0.00       0.00       0.00       0.00        0.00     0.00   0.000
  SUB_108                    0.00       0.00       0.00       0.00       0.00       0.00       0.00        0.00     0.00   0.000
  SUB_109                    0.00       0.00       0.00       0.00       0.00       0.00       0.00        0.00     0.00   0.000
  SUB_110                    0.00       0.00       0.00       0.00       0.00       0.00       0.00        0.00     0.00   0.000
  SUB_111                    0.00       0.00       0.00       0.00       0.00       0.00       0.00        0.00     0.00   0.000
  SUB_112                    0.00       0.00       0.00       0.00       0.00       0.00       0.00        0.00     0.00   0.000
  SUB_113                    0.00       0.00       0.00       0.00       0.00       0.00       0.00        0.00     0.00   0.000
  SUB_114                    0.00       0.00       0.00       0.00       0.00       0.00       0.00        0.00     0.00   0.000
  SUB_115                    0.00       0.00       0.00       0.00       0.00       0.00       0.00        0.00     0.00   0.000
  SUB_116                    0.00       0.00       0.00       0.00       0.00       0.00       0.00        0.00     0.00   0.000
  SUB_117                    0.00       0.00       0.00       0.00       0.00       0.00       0.00        0.00     0.00   0.000
  SUB_118                    0.00       0.00       0.00       0.00       0.00       0.00       0.00        0.00     0.00   0.000
  SUB_119                    0.00       0.00       0.00       0.00       0.00       0.00       0.00        0.00     0.00   0.000
  SUB_120                    0.00       0.00       0.00       0.00       0.00       0.00       0.00        0.00     0.00   0.000
  SUB_121                    0.00       0.00       0.00       0.00       0.00       0.00       0.00        0.00     0.00   0.000
  SUB_122                    0.00       0.00       0.00       0.00       0.00       0.00       0.00        0.00     0.00   0.000
  SUB_123                    0.00       0.00       0.00       0.00       0.00       0.00       0.00        0.00     0.00   0.000
  SUB_124                    0.00       0.00       0.00       0.00       0.00       0.00       0.00        0.00     0.00   0.000
  SUB_125                    0.00       0.00       0.00       0.00       0.00       0.00       0.00        0.00     0.00   0.000
  SUB_126                    0.00       0.00       0.00       0.00       0.00       0.00       0.00        0.00     0.00   0.000
  SUB_127                    0.00       0.00       0.00       0.00       0.00       0.00       0.00        0.00     0.00   0.000
  SUB_128                    0.00       0.00       0.00       0.00       0.00       0.00       0.00        0.00     0.00   0.000
  SUB_129                    0.00       0.00       0.00       0.00       0.00       0.00       0.00        0.00     0.00   0.000
  SUB_130                    0.00       0.00       0.00       0.00       0.00       0.00       0.00        0.00     0.00   0.000
  SUB_131                    0.00       0.00       0.00       0.00       0.00       0.00       0.00        0.00     0.00   0.000
  SUB_132                    0.00       0.00       0.00       0.00       0.00       0.00       0.00        0.00     0.00   0.000
  SUB_133                    0.00       0.00       0.00       0.00       0.00       0.00       0.00        0.00     0.00   0.000
  SUB_134                    0.00       0.00       0.00       0.00       0.00       0.00       0.00        0.00     0.00   0.000
  SUB_135                    0.00       0.00       0.00       0.00       0.00       0.00       0.00        0.00     0.00   0.000
  SUB_136                    0.00       0.00       0.00       0.00       0.00       0.00       0.00        0.00     0.00   0.000
  SUB_137                    0.00       0.00       0.00       0.00       0.00       0.00       0.00        0.00     0.00   0.000
  SUB_138                    0.00       0.00       0.00       0.00       0.00       0.00       0.00        0.00     0.00   0.000
  SUB_139                    0.00       0.00       0.00       0.00       0.00       0.00       0.00        0.00     0.00   0.000
  SUB_140                    0.00       0.00       0.00       0.00       0.00       0.00       0.00        0.00     0.00   0.000
  SUB_141                    0.00       0.00       0.00       0.00       0.00       0.00       0.00        0.00     0.00   0.000
  SUB_142                    0.00       0.00       0.00       0.00       0.00       0.00       0.00        0.00     0.00   0.000
  
  
  ******************
  Node Depth Summary
  ******************
  
  ---------------------------------------------------------------------------------
                                 Average  Maximum  Maximum  Time of Max    Reported
                                   Depth    Depth      HGL   Occurrence   Max Depth
  Node                 Type         Feet     Feet     Feet  days hr:min        Feet
  ---------------------------------------------------------------------------------
  34699                JUNCTION  -nan(ind)     0.00   753.02     0  00:00        0.00
  34700                JUNCTION  -nan(ind)     0.00   729.05     0  00:00        0.00
  34702                JUNCTION  -nan(ind)     0.00   747.50     0  00:00        0.00
  34709                JUNCTION  -nan(ind)     0.00   743.50     0  00:00        0.00
  34720                JUNCTION  -nan(ind)     0.00   718.22     0  00:00        0.00
  34791                JUNCTION  -nan(ind)     0.00   720.99     0  00:00        0.00
  34797                JUNCTION  -nan(ind)     0.00   733.85     0  00:00        0.00
  34801                JUNCTION  -nan(ind)     0.00   766.56     0  00:00        0.00
  34817                JUNCTION  -nan(ind)     0.00   734.40     0  00:00        0.00
  34906                JUNCTION  -nan(ind)     0.00   724.37     0  00:00        0.00
  34927                JUNCTION  -nan(ind)     0.00   752.14     0  00:00        0.00
  34928                JUNCTION  -nan(ind)     0.00   751.28     0  00:00        0.00
  34932                JUNCTION  -nan(ind)     0.00   753.35     0  00:00        0.00
  34986                JUNCTION  -nan(ind)     0.00   731.80     0  00:00        0.00
  34997                JUNCTION  -nan(ind)     0.00   727.78     0  00:00        0.00
  35002                JUNCTION  -nan(ind)     0.00   735.70     0  00:00        0.00
  35007                JUNCTION  -nan(ind)     0.00   755.76     0  00:00        0.00
  35010                JUNCTION  -nan(ind)     0.00   733.80     0  00:00        0.00
  35036                JUNCTION  -nan(ind)     0.00   735.83     0  00:00        0.00
  35048                JUNCTION  -nan(ind)     0.00   722.97     0  00:00        0.00
  35081                JUNCTION  -nan(ind)     0.00   754.86     0  00:00        0.00
  35129                JUNCTION  -nan(ind)     0.00   730.00     0  00:00        0.00
  35179                JUNCTION  -nan(ind)     0.00   725.76     0  00:00        0.00
  35195                JUNCTION  -nan(ind)     0.00   721.57     0  00:00        0.00
  37109                JUNCTION  -nan(ind)     0.00   724.00     0  00:00        0.00
  37162                JUNCTION  -nan(ind)     0.00   726.25     0  00:00        0.00
  37510                JUNCTION  -nan(ind)     0.00   729.62     0  00:00        0.00
  38033                JUNCTION  -nan(ind)     0.00   725.40     0  00:00        0.00
  38454                JUNCTION  -nan(ind)     0.00   720.79     0  00:00        0.00
  38533                JUNCTION  -nan(ind)     0.00   722.00     0  00:00        0.00
  38562                JUNCTION  -nan(ind)     0.00   723.13     0  00:00        0.00
  38594                JUNCTION  -nan(ind)     0.00   724.55     0  00:00        0.00
  38846                JUNCTION  -nan(ind)     0.00   712.02     0  00:00        0.00
  38938                JUNCTION  -nan(ind)     0.00   726.82     0  00:00        0.00
  39034                JUNCTION  -nan(ind)     0.00   709.02     0  00:00        0.00
  39046                JUNCTION  -nan(ind)     0.00   720.03     0  00:00        0.00
  39066                JUNCTION  -nan(ind)     0.00   719.36     0  00:00        0.00
  39133                JUNCTION  -nan(ind)     0.00   723.87     0  00:00        0.00
  39240                JUNCTION  -nan(ind)     0.00   706.01     0  00:00        0.00
  39251                JUNCTION  -nan(ind)     0.00   717.80     0  00:00        0.00
  39814                JUNCTION  -nan(ind)     0.00   682.20     0  00:00        0.00
  39875                JUNCTION  -nan(ind)     0.00   715.47     0  00:00        0.00
  40415                JUNCTION  -nan(ind)     0.00   727.56     0  00:00        0.00
  41135                JUNCTION  -nan(ind)     0.00   837.60     0  00:00        0.00
  41137                JUNCTION  -nan(ind)     0.00   811.03     0  00:00        0.00
  41138                JUNCTION  -nan(ind)     0.00   813.29     0  00:00        0.00
  41139                JUNCTION  -nan(ind)     0.00   825.20     0  00:00        0.00
  41140                JUNCTION  -nan(ind)     0.00   822.77     0  00:00        0.00
  41143                JUNCTION  -nan(ind)     0.00   828.03     0  00:00        0.00
  41144                JUNCTION  -nan(ind)     0.00   816.32     0  00:00        0.00
  41145                JUNCTION  -nan(ind)     0.00   815.24     0  00:00        0.00
  41146                JUNCTION  -nan(ind)     0.00   811.81     0  00:00        0.00
  41148                JUNCTION  -nan(ind)     0.00   819.50     0  00:00        0.00
  41150                JUNCTION  -nan(ind)     0.00   809.75     0  00:00        0.00
  41151                JUNCTION  -nan(ind)     0.00   793.83     0  00:00        0.00
  41152                JUNCTION  -nan(ind)     0.00   803.85     0  00:00        0.00
  41153                JUNCTION  -nan(ind)     0.00   797.51     0  00:00        0.00
  41154                JUNCTION  -nan(ind)     0.00   809.12     0  00:00        0.00
  41156                JUNCTION  -nan(ind)     0.00   832.86     0  00:00        0.00
  41157                JUNCTION  -nan(ind)     0.00   816.79     0  00:00        0.00
  41158                JUNCTION  -nan(ind)     0.00   824.78     0  00:00        0.00
  41160                JUNCTION  -nan(ind)     0.00   807.80     0  00:00        0.00
  41162                JUNCTION  -nan(ind)     0.00   790.88     0  00:00        0.00
  41163                JUNCTION  -nan(ind)     0.00   821.91     0  00:00        0.00
  41164                JUNCTION  -nan(ind)     0.00   804.16     0  00:00        0.00
  41165                JUNCTION  -nan(ind)     0.00   833.14     0  00:00        0.00
  41166                JUNCTION  -nan(ind)     0.00   826.94     0  00:00        0.00
  41167                JUNCTION  -nan(ind)     0.00   813.03     0  00:00        0.00
  41169                JUNCTION  -nan(ind)     0.00   802.12     0  00:00        0.00
  41170                JUNCTION  -nan(ind)     0.00   825.00     0  00:00        0.00
  41171                JUNCTION  -nan(ind)     0.00   810.23     0  00:00        0.00
  41174                JUNCTION  -nan(ind)     0.00   801.85     0  00:00        0.00
  41175                JUNCTION  -nan(ind)     0.00   830.68     0  00:00        0.00
  41176                JUNCTION  -nan(ind)     0.00   820.64     0  00:00        0.00
  41177                JUNCTION  -nan(ind)     0.00   804.91     0  00:00        0.00
  41178                JUNCTION  -nan(ind)     0.00   791.70     0  00:00        0.00
  41181                JUNCTION  -nan(ind)     0.00   819.48     0  00:00        0.00
  41182                JUNCTION  -nan(ind)     0.00   809.30     0  00:00        0.00
  41184                JUNCTION  -nan(ind)     0.00   820.18     0  00:00        0.00
  41185                JUNCTION  -nan(ind)     0.00   833.06     0  00:00        0.00
  41186                JUNCTION  -nan(ind)     0.00   807.07     0  00:00        0.00
  41187                JUNCTION  -nan(ind)     0.00   801.25     0  00:00        0.00
  41188                JUNCTION  -nan(ind)     0.00   814.30     0  00:00        0.00
  41189                JUNCTION  -nan(ind)     0.00   826.55     0  00:00        0.00
  41190                JUNCTION  -nan(ind)     0.00   814.71     0  00:00        0.00
  41191                JUNCTION  -nan(ind)     0.00   834.45     0  00:00        0.00
  41192                JUNCTION  -nan(ind)     0.00   823.60     0  00:00        0.00
  41193                JUNCTION  -nan(ind)     0.00   818.00     0  00:00        0.00
  41194                JUNCTION  -nan(ind)     0.00   804.48     0  00:00        0.00
  41195                JUNCTION  -nan(ind)     0.00   799.57     0  00:00        0.00
  41197                JUNCTION  -nan(ind)     0.00   820.82     0  00:00        0.00
  41199                JUNCTION  -nan(ind)     0.00   819.91     0  00:00        0.00
  41200                JUNCTION  -nan(ind)     0.00   812.68     0  00:00        0.00
  41201                JUNCTION  -nan(ind)     0.00   818.27     0  00:00        0.00
  41202                JUNCTION  -nan(ind)     0.00   795.15     0  00:00        0.00
  41203                JUNCTION  -nan(ind)     0.00   806.76     0  00:00        0.00
  41204                JUNCTION  -nan(ind)     0.00   791.77     0  00:00        0.00
  41206                JUNCTION  -nan(ind)     0.00   828.48     0  00:00        0.00
  41207                JUNCTION  -nan(ind)     0.00   801.22     0  00:00        0.00
  41208                JUNCTION  -nan(ind)     0.00   803.61     0  00:00        0.00
  41209                JUNCTION  -nan(ind)     0.00   814.00     0  00:00        0.00
  41210                JUNCTION  -nan(ind)     0.00   794.28     0  00:00        0.00
  41211                JUNCTION  -nan(ind)     0.00   824.37     0  00:00        0.00
  41212                JUNCTION  -nan(ind)     0.00   819.14     0  00:00        0.00
  41215                JUNCTION  -nan(ind)     0.00   787.72     0  00:00        0.00
  41216                JUNCTION  -nan(ind)     0.00   832.44     0  00:00        0.00
  41217                JUNCTION  -nan(ind)     0.00   832.26     0  00:00        0.00
  41218                JUNCTION  -nan(ind)     0.00   807.60     0  00:00        0.00
  41219                JUNCTION  -nan(ind)     0.00   827.11     0  00:00        0.00
  41220                JUNCTION  -nan(ind)     0.00   804.12     0  00:00        0.00
  41221                JUNCTION  -nan(ind)     0.00   810.20     0  00:00        0.00
  41222                JUNCTION  -nan(ind)     0.00   804.01     0  00:00        0.00
  41223                JUNCTION  -nan(ind)     0.00   807.63     0  00:00        0.00
  41225                JUNCTION  -nan(ind)     0.00   821.53     0  00:00        0.00
  41226                JUNCTION  -nan(ind)     0.00   798.41     0  00:00        0.00
  41227                JUNCTION  -nan(ind)     0.00   824.63     0  00:00        0.00
  41228                JUNCTION  -nan(ind)     0.00   816.81     0  00:00        0.00
  41229                JUNCTION  -nan(ind)     0.00   831.05     0  00:00        0.00
  41230                JUNCTION  -nan(ind)     0.00   817.84     0  00:00        0.00
  41231                JUNCTION  -nan(ind)     0.00   830.10     0  00:00        0.00
  41232                JUNCTION  -nan(ind)     0.00   817.36     0  00:00        0.00
  41233                JUNCTION  -nan(ind)     0.00   802.40     0  00:00        0.00
  41235                JUNCTION  -nan(ind)     0.00   803.14     0  00:00        0.00
  41236                JUNCTION  -nan(ind)     0.00   803.59     0  00:00        0.00
  41237                JUNCTION  -nan(ind)     0.00   805.50     0  00:00        0.00
  41238                JUNCTION  -nan(ind)     0.00   796.42     0  00:00        0.00
  41241                JUNCTION  -nan(ind)     0.00   803.83     0  00:00        0.00
  41242                JUNCTION  -nan(ind)     0.00   800.73     0  00:00        0.00
  41243                JUNCTION  -nan(ind)     0.00   838.50     0  00:00        0.00
  41246                JUNCTION  -nan(ind)     0.00   809.85     0  00:00        0.00
  41247                JUNCTION  -nan(ind)     0.00   808.59     0  00:00        0.00
  41256                JUNCTION  -nan(ind)     0.00   685.86     0  00:00        0.00
  41257                JUNCTION  -nan(ind)     0.00   684.24     0  00:00        0.00
  41260                JUNCTION  -nan(ind)     0.00   685.43     0  00:00        0.00
  41261                JUNCTION  -nan(ind)     0.00   762.31     0  00:00        0.00
  41262                JUNCTION  -nan(ind)     0.00   686.14     0  00:00        0.00
  41263                JUNCTION  -nan(ind)     0.00   688.27     0  00:00        0.00
  41264                JUNCTION  -nan(ind)     0.00   727.99     0  00:00        0.00
  41265                JUNCTION  -nan(ind)     0.00   816.19     0  00:00        0.00
  41266                JUNCTION  -nan(ind)     0.00   716.40     0  00:00        0.00
  41267                JUNCTION  -nan(ind)     0.00   717.29     0  00:00        0.00
  41268                JUNCTION  -nan(ind)     0.00   829.99     0  00:00        0.00
  41269                JUNCTION  -nan(ind)     0.00   877.68     0  00:00        0.00
  41270                JUNCTION  -nan(ind)     0.00   861.55     0  00:00        0.00
  41271                JUNCTION  -nan(ind)     0.00   743.57     0  00:00        0.00
  41272                JUNCTION  -nan(ind)     0.00   724.77     0  00:00        0.00
  41273                JUNCTION  -nan(ind)     0.00   822.84     0  00:00        0.00
  41274                JUNCTION  -nan(ind)     0.00   891.48     0  00:00        0.00
  41275                JUNCTION  -nan(ind)     0.00   879.20     0  00:00        0.00
  41276                JUNCTION  -nan(ind)     0.00   825.16     0  00:00        0.00
  41277                JUNCTION  -nan(ind)     0.00   782.00     0  00:00        0.00
  41278                JUNCTION  -nan(ind)     0.00   712.00     0  00:00        0.00
  41279                JUNCTION  -nan(ind)     0.00   839.27     0  00:00        0.00
  41280                JUNCTION  -nan(ind)     0.00   817.91     0  00:00        0.00
  41281                JUNCTION  -nan(ind)     0.00   685.66     0  00:00        0.00
  41282                JUNCTION  -nan(ind)     0.00   744.75     0  00:00        0.00
  41285                JUNCTION  -nan(ind)     0.00   837.14     0  00:00        0.00
  41286                JUNCTION  -nan(ind)     0.00   687.40     0  00:00        0.00
  41287                JUNCTION  -nan(ind)     0.00   719.03     0  00:00        0.00
  41288                JUNCTION  -nan(ind)     0.00   830.18     0  00:00        0.00
  41289                JUNCTION  -nan(ind)     0.00   709.00     0  00:00        0.00
  41290                JUNCTION  -nan(ind)     0.00   813.40     0  00:00        0.00
  41291                JUNCTION  -nan(ind)     0.00   803.45     0  00:00        0.00
  41292                JUNCTION  -nan(ind)     0.00   782.00     0  00:00        0.00
  41293                JUNCTION  -nan(ind)     0.00   764.54     0  00:00        0.00
  41294                JUNCTION  -nan(ind)     0.00   813.20     0  00:00        0.00
  41295                JUNCTION  -nan(ind)     0.00   854.02     0  00:00        0.00
  41296                JUNCTION  -nan(ind)     0.00   782.90     0  00:00        0.00
  41297                JUNCTION  -nan(ind)     0.00   822.83     0  00:00        0.00
  41298                JUNCTION  -nan(ind)     0.00   854.61     0  00:00        0.00
  41299                JUNCTION  -nan(ind)     0.00   832.45     0  00:00        0.00
  41300                JUNCTION  -nan(ind)     0.00   752.73     0  00:00        0.00
  41301                JUNCTION  -nan(ind)     0.00   764.55     0  00:00        0.00
  41302                JUNCTION  -nan(ind)     0.00   767.00     0  00:00        0.00
  41303                JUNCTION  -nan(ind)     0.00   801.69     0  00:00        0.00
  41304                JUNCTION  -nan(ind)     0.00   776.49     0  00:00        0.00
  41305                JUNCTION  -nan(ind)     0.00   714.98     0  00:00        0.00
  41306                JUNCTION  -nan(ind)     0.00   689.24     0  00:00        0.00
  41307                JUNCTION  -nan(ind)     0.00   736.64     0  00:00        0.00
  41308                JUNCTION  -nan(ind)     0.00   704.36     0  00:00        0.00
  41309                JUNCTION  -nan(ind)     0.00   687.59     0  00:00        0.00
  41310                JUNCTION  -nan(ind)     0.00   704.88     0  00:00        0.00
  41311                JUNCTION  -nan(ind)     0.00   818.45     0  00:00        0.00
  41312                JUNCTION  -nan(ind)     0.00   783.40     0  00:00        0.00
  41313                JUNCTION  -nan(ind)     0.00   702.10     0  00:00        0.00
  41314                JUNCTION  -nan(ind)     0.00   882.66     0  00:00        0.00
  41315                JUNCTION  -nan(ind)     0.00   721.64     0  00:00        0.00
  41316                JUNCTION  -nan(ind)     0.00   719.07     0  00:00        0.00
  41317                JUNCTION  -nan(ind)     0.00   738.70     0  00:00        0.00
  41318                JUNCTION  -nan(ind)     0.00   750.00     0  00:00        0.00
  41319                JUNCTION  -nan(ind)     0.00   712.15     0  00:00        0.00
  41320                JUNCTION  -nan(ind)     0.00   684.91     0  00:00        0.00
  41321                JUNCTION  -nan(ind)     0.00   704.29     0  00:00        0.00
  41322                JUNCTION  -nan(ind)     0.00   838.07     0  00:00        0.00
  41323                JUNCTION  -nan(ind)     0.00   686.95     0  00:00        0.00
  41324                JUNCTION  -nan(ind)     0.00   796.75     0  00:00        0.00
  41325                JUNCTION  -nan(ind)     0.00   820.92     0  00:00        0.00
  41326                JUNCTION  -nan(ind)     0.00   861.46     0  00:00        0.00
  41328                JUNCTION  -nan(ind)     0.00   827.98     0  00:00        0.00
  41329                JUNCTION  -nan(ind)     0.00   820.50     0  00:00        0.00
  41330                JUNCTION  -nan(ind)     0.00   838.44     0  00:00        0.00
  41331                JUNCTION  -nan(ind)     0.00   875.13     0  00:00        0.00
  41332                JUNCTION  -nan(ind)     0.00   740.35     0  00:00        0.00
  41333                JUNCTION  -nan(ind)     0.00   803.89     0  00:00        0.00
  41334                JUNCTION  -nan(ind)     0.00   827.07     0  00:00        0.00
  41335                JUNCTION  -nan(ind)     0.00   715.92     0  00:00        0.00
  41336                JUNCTION  -nan(ind)     0.00   695.84     0  00:00        0.00
  41337                JUNCTION  -nan(ind)     0.00   716.72     0  00:00        0.00
  41338                JUNCTION  -nan(ind)     0.00   704.50     0  00:00        0.00
  41339                JUNCTION  -nan(ind)     0.00   686.31     0  00:00        0.00
  41340                JUNCTION  -nan(ind)     0.00   737.02     0  00:00        0.00
  41341                JUNCTION  -nan(ind)     0.00   700.28     0  00:00        0.00
  41342                JUNCTION  -nan(ind)     0.00   776.85     0  00:00        0.00
  41343                JUNCTION  -nan(ind)     0.00   714.64     0  00:00        0.00
  41344                JUNCTION  -nan(ind)     0.00   687.90     0  00:00        0.00
  41345                JUNCTION  -nan(ind)     0.00   740.09     0  00:00        0.00
  41346                JUNCTION  -nan(ind)     0.00   754.99     0  00:00        0.00
  41347                JUNCTION  -nan(ind)     0.00   708.80     0  00:00        0.00
  41348                JUNCTION  -nan(ind)     0.00   786.23     0  00:00        0.00
  41349                JUNCTION  -nan(ind)     0.00   810.41     0  00:00        0.00
  41350                JUNCTION  -nan(ind)     0.00   860.10     0  00:00        0.00
  41351                JUNCTION  -nan(ind)     0.00   835.97     0  00:00        0.00
  41352                JUNCTION  -nan(ind)     0.00   704.44     0  00:00        0.00
  41353                JUNCTION  -nan(ind)     0.00   888.38     0  00:00        0.00
  41354                JUNCTION  -nan(ind)     0.00   739.40     0  00:00        0.00
  41355                JUNCTION  -nan(ind)     0.00   721.00     0  00:00        0.00
  41356                JUNCTION  -nan(ind)     0.00   753.50     0  00:00        0.00
  41358                JUNCTION  -nan(ind)     0.00   721.50     0  00:00        0.00
  41359                JUNCTION  -nan(ind)     0.00   773.55     0  00:00        0.00
  41360                JUNCTION  -nan(ind)     0.00   834.67     0  00:00        0.00
  41361                JUNCTION  -nan(ind)     0.00   767.04     0  00:00        0.00
  41362                JUNCTION  -nan(ind)     0.00   890.85     0  00:00        0.00
  41363                JUNCTION  -nan(ind)     0.00   891.07     0  00:00        0.00
  41364                JUNCTION  -nan(ind)     0.00   767.77     0  00:00        0.00
  41365                JUNCTION  -nan(ind)     0.00   837.23     0  00:00        0.00
  41366                JUNCTION  -nan(ind)     0.00   756.00     0  00:00        0.00
  41367                JUNCTION  -nan(ind)     0.00   828.95     0  00:00        0.00
  41368                JUNCTION  -nan(ind)     0.00   836.21     0  00:00        0.00
  41369                JUNCTION  -nan(ind)     0.00   683.80     0  00:00        0.00
  41370                JUNCTION  -nan(ind)     0.00   741.73     0  00:00        0.00
  41371                JUNCTION  -nan(ind)     0.00   875.50     0  00:00        0.00
  41372                JUNCTION  -nan(ind)     0.00   844.39     0  00:00        0.00
  41373                JUNCTION  -nan(ind)     0.00   752.14     0  00:00        0.00
  41374                JUNCTION  -nan(ind)     0.00   721.79     0  00:00        0.00
  41376                JUNCTION  -nan(ind)     0.00   703.61     0  00:00        0.00
  41377                JUNCTION  -nan(ind)     0.00   741.88     0  00:00        0.00
  41378                JUNCTION  -nan(ind)     0.00   742.37     0  00:00        0.00
  41379                JUNCTION  -nan(ind)     0.00   721.00     0  00:00        0.00
  41380                JUNCTION  -nan(ind)     0.00   717.98     0  00:00        0.00
  41381                JUNCTION  -nan(ind)     0.00   856.39     0  00:00        0.00
  41382                JUNCTION  -nan(ind)     0.00   816.35     0  00:00        0.00
  41383                JUNCTION  -nan(ind)     0.00   790.58     0  00:00        0.00
  41384                JUNCTION  -nan(ind)     0.00   711.00     0  00:00        0.00
  41385                JUNCTION  -nan(ind)     0.00   689.11     0  00:00        0.00
  41386                JUNCTION  -nan(ind)     0.00   733.00     0  00:00        0.00
  41387                JUNCTION  -nan(ind)     0.00   703.61     0  00:00        0.00
  41388                JUNCTION  -nan(ind)     0.00   701.27     0  00:00        0.00
  41389                JUNCTION  -nan(ind)     0.00   735.62     0  00:00        0.00
  41390                JUNCTION  -nan(ind)     0.00   689.97     0  00:00        0.00
  41391                JUNCTION  -nan(ind)     0.00   694.82     0  00:00        0.00
  41392                JUNCTION  -nan(ind)     0.00     0.00     0  00:00        0.00
  41393                JUNCTION  -nan(ind)     0.00   733.00     0  00:00        0.00
  41394                JUNCTION  -nan(ind)     0.00   684.50     0  00:00        0.00
  41395                JUNCTION  -nan(ind)     0.00   728.71     0  00:00        0.00
  41396                JUNCTION  -nan(ind)     0.00   721.92     0  00:00        0.00
  41397                JUNCTION  -nan(ind)     0.00   690.00     0  00:00        0.00
  41398                JUNCTION  -nan(ind)     0.00   688.86     0  00:00        0.00
  41399                JUNCTION  -nan(ind)     0.00   736.54     0  00:00        0.00
  41400                JUNCTION  -nan(ind)     0.00   707.16     0  00:00        0.00
  41401                JUNCTION  -nan(ind)     0.00   859.42     0  00:00        0.00
  41402                JUNCTION  -nan(ind)     0.00   756.82     0  00:00        0.00
  41403                JUNCTION  -nan(ind)     0.00   737.12     0  00:00        0.00
  41404                JUNCTION  -nan(ind)     0.00   736.72     0  00:00        0.00
  41405                JUNCTION  -nan(ind)     0.00   722.60     0  00:00        0.00
  41406                JUNCTION  -nan(ind)     0.00   686.59     0  00:00        0.00
  41407                JUNCTION  -nan(ind)     0.00   732.25     0  00:00        0.00
  41408                JUNCTION  -nan(ind)     0.00   708.24     0  00:00        0.00
  41409                JUNCTION  -nan(ind)     0.00   684.40     0  00:00        0.00
  41410                JUNCTION  -nan(ind)     0.00   739.53     0  00:00        0.00
  41411                JUNCTION  -nan(ind)     0.00   719.14     0  00:00        0.00
  41412                JUNCTION  -nan(ind)     0.00   696.94     0  00:00        0.00
  41413                JUNCTION  -nan(ind)     0.00   700.09     0  00:00        0.00
  41414                JUNCTION  -nan(ind)     0.00   702.15     0  00:00        0.00
  41415                JUNCTION  -nan(ind)     0.00   718.15     0  00:00        0.00
  41416                JUNCTION  -nan(ind)     0.00   738.53     0  00:00        0.00
  41418                JUNCTION  -nan(ind)     0.00   783.00     0  00:00        0.00
  41419                JUNCTION  -nan(ind)     0.00   684.40     0  00:00        0.00
  41420                JUNCTION  -nan(ind)     0.00   798.23     0  00:00        0.00
  41421                JUNCTION  -nan(ind)     0.00   799.49     0  00:00        0.00
  41422                JUNCTION  -nan(ind)     0.00   728.60     0  00:00        0.00
  41423                JUNCTION  -nan(ind)     0.00   873.41     0  00:00        0.00
  41424                JUNCTION  -nan(ind)     0.00   884.64     0  00:00        0.00
  41426                JUNCTION  -nan(ind)     0.00   718.00     0  00:00        0.00
  41427                JUNCTION  -nan(ind)     0.00   743.65     0  00:00        0.00
  41428                JUNCTION  -nan(ind)     0.00   735.68     0  00:00        0.00
  41429                JUNCTION  -nan(ind)     0.00   736.40     0  00:00        0.00
  41430                JUNCTION  -nan(ind)     0.00   731.32     0  00:00        0.00
  41431                JUNCTION  -nan(ind)     0.00   695.20     0  00:00        0.00
  41432                JUNCTION  -nan(ind)     0.00   698.99     0  00:00        0.00
  41433                JUNCTION  -nan(ind)     0.00   725.27     0  00:00        0.00
  41434                JUNCTION  -nan(ind)     0.00   873.93     0  00:00        0.00
  41435                JUNCTION  -nan(ind)     0.00   785.21     0  00:00        0.00
  41436                JUNCTION  -nan(ind)     0.00   875.97     0  00:00        0.00
  41437                JUNCTION  -nan(ind)     0.00   825.41     0  00:00        0.00
  41438                JUNCTION  -nan(ind)     0.00   793.23     0  00:00        0.00
  41439                JUNCTION  -nan(ind)     0.00   842.78     0  00:00        0.00
  41440                JUNCTION  -nan(ind)     0.00   827.47     0  00:00        0.00
  41441                JUNCTION  -nan(ind)     0.00   812.11     0  00:00        0.00
  41442                JUNCTION  -nan(ind)     0.00   798.44     0  00:00        0.00
  41443                JUNCTION  -nan(ind)     0.00   731.87     0  00:00        0.00
  41444                JUNCTION  -nan(ind)     0.00   840.21     0  00:00        0.00
  41445                JUNCTION  -nan(ind)     0.00   881.24     0  00:00        0.00
  41446                JUNCTION  -nan(ind)     0.00   847.29     0  00:00        0.00
  41447                JUNCTION  -nan(ind)     0.00   810.72     0  00:00        0.00
  41448                JUNCTION  -nan(ind)     0.00   795.05     0  00:00        0.00
  41449                JUNCTION  -nan(ind)     0.00   821.65     0  00:00        0.00
  41450                JUNCTION  -nan(ind)     0.00   797.16     0  00:00        0.00
  41451                JUNCTION  -nan(ind)     0.00   842.74     0  00:00        0.00
  41452                JUNCTION  -nan(ind)     0.00   802.22     0  00:00        0.00
  41453                JUNCTION  -nan(ind)     0.00   781.34     0  00:00        0.00
  41454                JUNCTION  -nan(ind)     0.00   707.67     0  00:00        0.00
  41455                JUNCTION  -nan(ind)     0.00   782.61     0  00:00        0.00
  41456                JUNCTION  -nan(ind)     0.00   873.29     0  00:00        0.00
  41457                JUNCTION  -nan(ind)     0.00   812.69     0  00:00        0.00
  41458                JUNCTION  -nan(ind)     0.00   811.32     0  00:00        0.00
  41459                JUNCTION  -nan(ind)     0.00   713.91     0  00:00        0.00
  41460                JUNCTION  -nan(ind)     0.00   824.20     0  00:00        0.00
  41461                JUNCTION  -nan(ind)     0.00   700.22     0  00:00        0.00
  41462                JUNCTION  -nan(ind)     0.00   771.96     0  00:00        0.00
  41463                JUNCTION  -nan(ind)     0.00   683.81     0  00:00        0.00
  41464                JUNCTION  -nan(ind)     0.00   713.91     0  00:00        0.00
  41465                JUNCTION  -nan(ind)     0.00   729.59     0  00:00        0.00
  41466                JUNCTION  -nan(ind)     0.00   726.69     0  00:00        0.00
  41467                JUNCTION  -nan(ind)     0.00   720.16     0  00:00        0.00
  41468                JUNCTION  -nan(ind)     0.00   813.75     0  00:00        0.00
  41469                JUNCTION  -nan(ind)     0.00   685.66     0  00:00        0.00
  41470                JUNCTION  -nan(ind)     0.00   702.75     0  00:00        0.00
  41471                JUNCTION  -nan(ind)     0.00   688.40     0  00:00        0.00
  41472                JUNCTION  -nan(ind)     0.00   738.14     0  00:00        0.00
  41473                JUNCTION  -nan(ind)     0.00   692.93     0  00:00        0.00
  41474                JUNCTION  -nan(ind)     0.00   768.37     0  00:00        0.00
  41475                JUNCTION  -nan(ind)     0.00   878.73     0  00:00        0.00
  41476                JUNCTION  -nan(ind)     0.00   762.63     0  00:00        0.00
  41477                JUNCTION  -nan(ind)     0.00   705.09     0  00:00        0.00
  41478                JUNCTION  -nan(ind)     0.00   864.61     0  00:00        0.00
  41479                JUNCTION  -nan(ind)     0.00   730.97     0  00:00        0.00
  41480                JUNCTION  -nan(ind)     0.00   695.49     0  00:00        0.00
  41481                JUNCTION  -nan(ind)     0.00   826.09     0  00:00        0.00
  41482                JUNCTION  -nan(ind)     0.00   689.66     0  00:00        0.00
  41483                JUNCTION  -nan(ind)     0.00   758.12     0  00:00        0.00
  41484                JUNCTION  -nan(ind)     0.00   684.00     0  00:00        0.00
  41485                JUNCTION  -nan(ind)     0.00   888.56     0  00:00        0.00
  41486                JUNCTION  -nan(ind)     0.00   723.14     0  00:00        0.00
  41487                JUNCTION  -nan(ind)     0.00   687.39     0  00:00        0.00
  41488                JUNCTION  -nan(ind)     0.00   759.56     0  00:00        0.00
  41489                JUNCTION  -nan(ind)     0.00   698.68     0  00:00        0.00
  41490                JUNCTION  -nan(ind)     0.00   764.45     0  00:00        0.00
  41491                JUNCTION  -nan(ind)     0.00   705.19     0  00:00        0.00
  41492                JUNCTION  -nan(ind)     0.00   736.50     0  00:00        0.00
  41494                JUNCTION  -nan(ind)     0.00   694.61     0  00:00        0.00
  41496                JUNCTION  -nan(ind)     0.00   716.96     0  00:00        0.00
  41497                JUNCTION  -nan(ind)     0.00   714.40     0  00:00        0.00
  41498                JUNCTION  -nan(ind)     0.00   706.34     0  00:00        0.00
  41499                JUNCTION  -nan(ind)     0.00   695.32     0  00:00        0.00
  41500                JUNCTION  -nan(ind)     0.00   700.61     0  00:00        0.00
  41501                JUNCTION  -nan(ind)     0.00   703.96     0  00:00        0.00
  41502                JUNCTION  -nan(ind)     0.00   729.16     0  00:00        0.00
  41503                JUNCTION  -nan(ind)     0.00   782.52     0  00:00        0.00
  41504                JUNCTION  -nan(ind)     0.00   762.95     0  00:00        0.00
  41505                JUNCTION  -nan(ind)     0.00   782.30     0  00:00        0.00
  41506                JUNCTION  -nan(ind)     0.00   824.44     0  00:00        0.00
  41507                JUNCTION  -nan(ind)     0.00   780.31     0  00:00        0.00
  41508                JUNCTION  -nan(ind)     0.00   802.36     0  00:00        0.00
  41509                JUNCTION  -nan(ind)     0.00   887.36     0  00:00        0.00
  41510                JUNCTION  -nan(ind)     0.00   713.76     0  00:00        0.00
  41511                JUNCTION  -nan(ind)     0.00   738.61     0  00:00        0.00
  41512                JUNCTION  -nan(ind)     0.00   806.50     0  00:00        0.00
  41513                JUNCTION  -nan(ind)     0.00   800.26     0  00:00        0.00
  41514                JUNCTION  -nan(ind)     0.00   878.22     0  00:00        0.00
  41515                JUNCTION  -nan(ind)     0.00   874.34     0  00:00        0.00
  41516                JUNCTION  -nan(ind)     0.00   763.32     0  00:00        0.00
  41517                JUNCTION  -nan(ind)     0.00   885.70     0  00:00        0.00
  41518                JUNCTION  -nan(ind)     0.00   830.53     0  00:00        0.00
  41519                JUNCTION  -nan(ind)     0.00   820.96     0  00:00        0.00
  41520                JUNCTION  -nan(ind)     0.00   851.63     0  00:00        0.00
  41521                JUNCTION  -nan(ind)     0.00   843.63     0  00:00        0.00
  41522                JUNCTION  -nan(ind)     0.00   766.81     0  00:00        0.00
  41523                JUNCTION  -nan(ind)     0.00   835.37     0  00:00        0.00
  41524                JUNCTION  -nan(ind)     0.00   837.25     0  00:00        0.00
  41525                JUNCTION  -nan(ind)     0.00   821.81     0  00:00        0.00
  41526                JUNCTION  -nan(ind)     0.00   718.11     0  00:00        0.00
  41527                JUNCTION  -nan(ind)     0.00   694.10     0  00:00        0.00
  41528                JUNCTION  -nan(ind)     0.00   720.00     0  00:00        0.00
  41529                JUNCTION  -nan(ind)     0.00   736.60     0  00:00        0.00
  41530                JUNCTION  -nan(ind)     0.00   695.46     0  00:00        0.00
  41531                JUNCTION  -nan(ind)     0.00   692.82     0  00:00        0.00
  41532                JUNCTION  -nan(ind)     0.00   702.74     0  00:00        0.00
  41533                JUNCTION  -nan(ind)     0.00   730.94     0  00:00        0.00
  41534                JUNCTION  -nan(ind)     0.00   703.84     0  00:00        0.00
  41535                JUNCTION  -nan(ind)     0.00   701.00     0  00:00        0.00
  41537                JUNCTION  -nan(ind)     0.00   774.29     0  00:00        0.00
  41538                JUNCTION  -nan(ind)     0.00   687.50     0  00:00        0.00
  41539                JUNCTION  -nan(ind)     0.00   871.65     0  00:00        0.00
  41540                JUNCTION  -nan(ind)     0.00   896.24     0  00:00        0.00
  41541                JUNCTION  -nan(ind)     0.00   715.64     0  00:00        0.00
  41542                JUNCTION  -nan(ind)     0.00   714.00     0  00:00        0.00
  41543                JUNCTION  -nan(ind)     0.00   686.29     0  00:00        0.00
  41544                JUNCTION  -nan(ind)     0.00   693.80     0  00:00        0.00
  41545                JUNCTION  -nan(ind)     0.00   699.47     0  00:00        0.00
  41546                JUNCTION  -nan(ind)     0.00   701.22     0  00:00        0.00
  41547                JUNCTION  -nan(ind)     0.00   688.39     0  00:00        0.00
  41548                JUNCTION  -nan(ind)     0.00   712.36     0  00:00        0.00
  41549                JUNCTION  -nan(ind)     0.00   686.50     0  00:00        0.00
  41550                JUNCTION  -nan(ind)     0.00   691.17     0  00:00        0.00
  41551                JUNCTION  -nan(ind)     0.00   698.29     0  00:00        0.00
  41552                JUNCTION  -nan(ind)     0.00   684.30     0  00:00        0.00
  41553                JUNCTION  -nan(ind)     0.00   698.78     0  00:00        0.00
  41554                JUNCTION  -nan(ind)     0.00   717.84     0  00:00        0.00
  41555                JUNCTION  -nan(ind)     0.00   720.50     0  00:00        0.00
  41556                JUNCTION  -nan(ind)     0.00   787.00     0  00:00        0.00
  41557                JUNCTION  -nan(ind)     0.00   793.34     0  00:00        0.00
  41558                JUNCTION  -nan(ind)     0.00   838.31     0  00:00        0.00
  41559                JUNCTION  -nan(ind)     0.00   760.68     0  00:00        0.00
  41560                JUNCTION  -nan(ind)     0.00   818.01     0  00:00        0.00
  41561                JUNCTION  -nan(ind)     0.00   765.75     0  00:00        0.00
  41562                JUNCTION  -nan(ind)     0.00   774.82     0  00:00        0.00
  41563                JUNCTION  -nan(ind)     0.00   831.79     0  00:00        0.00
  41564                JUNCTION  -nan(ind)     0.00   874.66     0  00:00        0.00
  41565                JUNCTION  -nan(ind)     0.00   706.67     0  00:00        0.00
  41566                JUNCTION  -nan(ind)     0.00   788.64     0  00:00        0.00
  41567                JUNCTION  -nan(ind)     0.00   883.93     0  00:00        0.00
  41568                JUNCTION  -nan(ind)     0.00   850.27     0  00:00        0.00
  41569                JUNCTION  -nan(ind)     0.00   704.41     0  00:00        0.00
  41570                JUNCTION  -nan(ind)     0.00   856.89     0  00:00        0.00
  41571                JUNCTION  -nan(ind)     0.00   845.58     0  00:00        0.00
  41572                JUNCTION  -nan(ind)     0.00   808.07     0  00:00        0.00
  41573                JUNCTION  -nan(ind)     0.00   688.00     0  00:00        0.00
  41575                JUNCTION  -nan(ind)     0.00   687.50     0  00:00        0.00
  41576                JUNCTION  -nan(ind)     0.00   693.23     0  00:00        0.00
  41577                JUNCTION  -nan(ind)     0.00   682.42     0  00:00        0.00
  41578                JUNCTION  -nan(ind)     0.00   694.17     0  00:00        0.00
  41579                JUNCTION  -nan(ind)     0.00   697.48     0  00:00        0.00
  41580                JUNCTION  -nan(ind)     0.00   695.46     0  00:00        0.00
  41581                JUNCTION  -nan(ind)     0.00   683.17     0  00:00        0.00
  41582                JUNCTION  -nan(ind)     0.00   694.30     0  00:00        0.00
  41583                JUNCTION  -nan(ind)     0.00   691.98     0  00:00        0.00
  41584                JUNCTION  -nan(ind)     0.00   682.90     0  00:00        0.00
  41585                JUNCTION  -nan(ind)     0.00   683.44     0  00:00        0.00
  41586                JUNCTION  -nan(ind)     0.00   683.97     0  00:00        0.00
  41587                JUNCTION  -nan(ind)     0.00   689.26     0  00:00        0.00
  41588                JUNCTION  -nan(ind)     0.00   694.17     0  00:00        0.00
  41589                JUNCTION  -nan(ind)     0.00   689.66     0  00:00        0.00
  41590                JUNCTION  -nan(ind)     0.00   695.10     0  00:00        0.00
  41591                JUNCTION  -nan(ind)     0.00   687.78     0  00:00        0.00
  41592                JUNCTION  -nan(ind)     0.00   683.65     0  00:00        0.00
  41593                JUNCTION  -nan(ind)     0.00   815.30     0  00:00        0.00
  41594                JUNCTION  -nan(ind)     0.00   825.16     0  00:00        0.00
  41595                JUNCTION  -nan(ind)     0.00   817.96     0  00:00        0.00
  41596                JUNCTION  -nan(ind)     0.00   761.26     0  00:00        0.00
  41597                JUNCTION  -nan(ind)     0.00   859.76     0  00:00        0.00
  41598                JUNCTION  -nan(ind)     0.00   783.48     0  00:00        0.00
  41599                JUNCTION  -nan(ind)     0.00   774.41     0  00:00        0.00
  41600                JUNCTION  -nan(ind)     0.00   749.86     0  00:00        0.00
  41601                JUNCTION  -nan(ind)     0.00   846.97     0  00:00        0.00
  41602                JUNCTION  -nan(ind)     0.00   781.93     0  00:00        0.00
  41603                JUNCTION  -nan(ind)     0.00   889.00     0  00:00        0.00
  41604                JUNCTION  -nan(ind)     0.00   820.05     0  00:00        0.00
  41605                JUNCTION  -nan(ind)     0.00   729.57     0  00:00        0.00
  41606                JUNCTION  -nan(ind)     0.00   699.50     0  00:00        0.00
  41607                JUNCTION  -nan(ind)     0.00   831.72     0  00:00        0.00
  41608                JUNCTION  -nan(ind)     0.00   737.63     0  00:00        0.00
  41609                JUNCTION  -nan(ind)     0.00   833.72     0  00:00        0.00
  41610                JUNCTION  -nan(ind)     0.00   857.89     0  00:00        0.00
  41611                JUNCTION  -nan(ind)     0.00   695.43     0  00:00        0.00
  41612                JUNCTION  -nan(ind)     0.00   733.18     0  00:00        0.00
  41613                JUNCTION  -nan(ind)     0.00   684.10     0  00:00        0.00
  41614                JUNCTION  -nan(ind)     0.00   749.60     0  00:00        0.00
  41615                JUNCTION  -nan(ind)     0.00   750.23     0  00:00        0.00
  41616                JUNCTION  -nan(ind)     0.00   814.01     0  00:00        0.00
  41617                JUNCTION  -nan(ind)     0.00   814.80     0  00:00        0.00
  41618                JUNCTION  -nan(ind)     0.00   696.98     0  00:00        0.00
  41619                JUNCTION  -nan(ind)     0.00   816.24     0  00:00        0.00
  41620                JUNCTION  -nan(ind)     0.00   790.11     0  00:00        0.00
  41621                JUNCTION  -nan(ind)     0.00   685.74     0  00:00        0.00
  41622                JUNCTION  -nan(ind)     0.00   702.44     0  00:00        0.00
  41623                JUNCTION  -nan(ind)     0.00   713.85     0  00:00        0.00
  41624                JUNCTION  -nan(ind)     0.00   754.91     0  00:00        0.00
  41625                JUNCTION  -nan(ind)     0.00   734.33     0  00:00        0.00
  41626                JUNCTION  -nan(ind)     0.00   702.17     0  00:00        0.00
  41627                JUNCTION  -nan(ind)     0.00   724.00     0  00:00        0.00
  41628                JUNCTION  -nan(ind)     0.00   737.99     0  00:00        0.00
  41629                JUNCTION  -nan(ind)     0.00   713.76     0  00:00        0.00
  41630                JUNCTION  -nan(ind)     0.00   688.68     0  00:00        0.00
  41631                JUNCTION  -nan(ind)     0.00   723.30     0  00:00        0.00
  41632                JUNCTION  -nan(ind)     0.00   736.50     0  00:00        0.00
  41633                JUNCTION  -nan(ind)     0.00   709.82     0  00:00        0.00
  41635                JUNCTION  -nan(ind)     0.00   690.36     0  00:00        0.00
  41636                JUNCTION  -nan(ind)     0.00   684.82     0  00:00        0.00
  41637                JUNCTION  -nan(ind)     0.00   685.07     0  00:00        0.00
  41638                JUNCTION  -nan(ind)     0.00   685.57     0  00:00        0.00
  41639                JUNCTION  -nan(ind)     0.00   708.35     0  00:00        0.00
  41640                JUNCTION  -nan(ind)     0.00   753.84     0  00:00        0.00
  41641                JUNCTION  -nan(ind)     0.00   723.16     0  00:00        0.00
  41642                JUNCTION  -nan(ind)     0.00   695.39     0  00:00        0.00
  41643                JUNCTION  -nan(ind)     0.00   731.22     0  00:00        0.00
  41644                JUNCTION  -nan(ind)     0.00   701.52     0  00:00        0.00
  41645                JUNCTION  -nan(ind)     0.00   738.40     0  00:00        0.00
  41646                JUNCTION  -nan(ind)     0.00   857.59     0  00:00        0.00
  41647                JUNCTION  -nan(ind)     0.00   724.04     0  00:00        0.00
  41648                JUNCTION  -nan(ind)     0.00   686.61     0  00:00        0.00
  41649                JUNCTION  -nan(ind)     0.00   730.82     0  00:00        0.00
  41650                JUNCTION  -nan(ind)     0.00   708.07     0  00:00        0.00
  41651                JUNCTION  -nan(ind)     0.00   705.95     0  00:00        0.00
  41653                JUNCTION  -nan(ind)     0.00   827.23     0  00:00        0.00
  41654                JUNCTION  -nan(ind)     0.00   715.00     0  00:00        0.00
  41655                JUNCTION  -nan(ind)     0.00   724.53     0  00:00        0.00
  41656                JUNCTION  -nan(ind)     0.00   851.43     0  00:00        0.00
  41657                JUNCTION  -nan(ind)     0.00   733.54     0  00:00        0.00
  41658                JUNCTION  -nan(ind)     0.00   683.19     0  00:00        0.00
  41659                JUNCTION  -nan(ind)     0.00   720.61     0  00:00        0.00
  41660                JUNCTION  -nan(ind)     0.00   815.82     0  00:00        0.00
  41661                JUNCTION  -nan(ind)     0.00   726.35     0  00:00        0.00
  41662                JUNCTION  -nan(ind)     0.00   726.45     0  00:00        0.00
  41663                JUNCTION  -nan(ind)     0.00   750.08     0  00:00        0.00
  41664                JUNCTION  -nan(ind)     0.00   706.25     0  00:00        0.00
  41665                JUNCTION  -nan(ind)     0.00   712.22     0  00:00        0.00
  41666                JUNCTION  -nan(ind)     0.00   693.86     0  00:00        0.00
  41667                JUNCTION  -nan(ind)     0.00   712.00     0  00:00        0.00
  41668                JUNCTION  -nan(ind)     0.00   718.20     0  00:00        0.00
  41669                JUNCTION  -nan(ind)     0.00   741.69     0  00:00        0.00
  41670                JUNCTION  -nan(ind)     0.00   719.10     0  00:00        0.00
  41671                JUNCTION  -nan(ind)     0.00   716.12     0  00:00        0.00
  41672                JUNCTION  -nan(ind)     0.00   705.15     0  00:00        0.00
  41673                JUNCTION  -nan(ind)     0.00   724.82     0  00:00        0.00
  41674                JUNCTION  -nan(ind)     0.00   748.30     0  00:00        0.00
  41675                JUNCTION  -nan(ind)     0.00   740.56     0  00:00        0.00
  41676                JUNCTION  -nan(ind)     0.00   718.02     0  00:00        0.00
  41677                JUNCTION  -nan(ind)     0.00   726.30     0  00:00        0.00
  41678                JUNCTION  -nan(ind)     0.00   820.12     0  00:00        0.00
  41679                JUNCTION  -nan(ind)     0.00   711.16     0  00:00        0.00
  41680                JUNCTION  -nan(ind)     0.00   766.90     0  00:00        0.00
  41681                JUNCTION  -nan(ind)     0.00   702.84     0  00:00        0.00
  41682                JUNCTION  -nan(ind)     0.00   730.12     0  00:00        0.00
  41683                JUNCTION  -nan(ind)     0.00   747.91     0  00:00        0.00
  41684                JUNCTION  -nan(ind)     0.00   804.97     0  00:00        0.00
  41685                JUNCTION  -nan(ind)     0.00   737.84     0  00:00        0.00
  41686                JUNCTION  -nan(ind)     0.00   718.28     0  00:00        0.00
  41687                JUNCTION  -nan(ind)     0.00   695.42     0  00:00        0.00
  41688                JUNCTION  -nan(ind)     0.00   875.62     0  00:00        0.00
  41689                JUNCTION  -nan(ind)     0.00   850.29     0  00:00        0.00
  41690                JUNCTION  -nan(ind)     0.00   727.96     0  00:00        0.00
  41691                JUNCTION  -nan(ind)     0.00   685.46     0  00:00        0.00
  41692                JUNCTION  -nan(ind)     0.00   690.23     0  00:00        0.00
  41693                JUNCTION  -nan(ind)     0.00   708.44     0  00:00        0.00
  41694                JUNCTION  -nan(ind)     0.00   771.44     0  00:00        0.00
  41695                JUNCTION  -nan(ind)     0.00   851.06     0  00:00        0.00
  41697                JUNCTION  -nan(ind)     0.00   725.21     0  00:00        0.00
  41698                JUNCTION  -nan(ind)     0.00   738.67     0  00:00        0.00
  41699                JUNCTION  -nan(ind)     0.00   702.66     0  00:00        0.00
  41700                JUNCTION  -nan(ind)     0.00   751.64     0  00:00        0.00
  41701                JUNCTION  -nan(ind)     0.00   726.40     0  00:00        0.00
  41702                JUNCTION  -nan(ind)     0.00   762.71     0  00:00        0.00
  41703                JUNCTION  -nan(ind)     0.00   765.40     0  00:00        0.00
  41704                JUNCTION  -nan(ind)     0.00   712.48     0  00:00        0.00
  41705                JUNCTION  -nan(ind)     0.00   698.17     0  00:00        0.00
  41706                JUNCTION  -nan(ind)     0.00   734.02     0  00:00        0.00
  41707                JUNCTION  -nan(ind)     0.00   706.10     0  00:00        0.00
  41708                JUNCTION  -nan(ind)     0.00   711.69     0  00:00        0.00
  41709                JUNCTION  -nan(ind)     0.00   815.39     0  00:00        0.00
  41710                JUNCTION  -nan(ind)     0.00   860.82     0  00:00        0.00
  41711                JUNCTION  -nan(ind)     0.00   708.77     0  00:00        0.00
  41712                JUNCTION  -nan(ind)     0.00   693.50     0  00:00        0.00
  41713                JUNCTION  -nan(ind)     0.00   742.23     0  00:00        0.00
  41714                JUNCTION  -nan(ind)     0.00   686.78     0  00:00        0.00
  41715                JUNCTION  -nan(ind)     0.00   735.71     0  00:00        0.00
  41716                JUNCTION  -nan(ind)     0.00   696.40     0  00:00        0.00
  41717                JUNCTION  -nan(ind)     0.00   749.50     0  00:00        0.00
  41718                JUNCTION  -nan(ind)     0.00   752.83     0  00:00        0.00
  41719                JUNCTION  -nan(ind)     0.00   732.73     0  00:00        0.00
  41720                JUNCTION  -nan(ind)     0.00   877.48     0  00:00        0.00
  41721                JUNCTION  -nan(ind)     0.00   717.60     0  00:00        0.00
  41722                JUNCTION  -nan(ind)     0.00   708.35     0  00:00        0.00
  41723                JUNCTION  -nan(ind)     0.00   715.64     0  00:00        0.00
  41725                JUNCTION  -nan(ind)     0.00   723.98     0  00:00        0.00
  41726                JUNCTION  -nan(ind)     0.00   723.82     0  00:00        0.00
  41727                JUNCTION  -nan(ind)     0.00   756.80     0  00:00        0.00
  41728                JUNCTION  -nan(ind)     0.00   703.66     0  00:00        0.00
  41729                JUNCTION  -nan(ind)     0.00   684.85     0  00:00        0.00
  41730                JUNCTION  -nan(ind)     0.00   684.80     0  00:00        0.00
  41732                JUNCTION  -nan(ind)     0.00   776.17     0  00:00        0.00
  41733                JUNCTION  -nan(ind)     0.00   725.10     0  00:00        0.00
  41735                JUNCTION  -nan(ind)     0.00   730.20     0  00:00        0.00
  41736                JUNCTION  -nan(ind)     0.00   729.70     0  00:00        0.00
  41737                JUNCTION  -nan(ind)     0.00   704.79     0  00:00        0.00
  41738                JUNCTION  -nan(ind)     0.00   812.00     0  00:00        0.00
  41739                JUNCTION  -nan(ind)     0.00   730.66     0  00:00        0.00
  41740                JUNCTION  -nan(ind)     0.00   720.89     0  00:00        0.00
  41742                JUNCTION  -nan(ind)     0.00   744.93     0  00:00        0.00
  41743                JUNCTION  -nan(ind)     0.00   820.94     0  00:00        0.00
  41744                JUNCTION  -nan(ind)     0.00   717.62     0  00:00        0.00
  41745                JUNCTION  -nan(ind)     0.00   750.58     0  00:00        0.00
  41746                JUNCTION  -nan(ind)     0.00   707.32     0  00:00        0.00
  41747                JUNCTION  -nan(ind)     0.00   688.23     0  00:00        0.00
  41748                JUNCTION  -nan(ind)     0.00   695.89     0  00:00        0.00
  41749                JUNCTION  -nan(ind)     0.00   693.58     0  00:00        0.00
  41751                JUNCTION  -nan(ind)     0.00   868.49     0  00:00        0.00
  41752                JUNCTION  -nan(ind)     0.00   701.38     0  00:00        0.00
  41753                JUNCTION  -nan(ind)     0.00   841.19     0  00:00        0.00
  41754                JUNCTION  -nan(ind)     0.00   753.00     0  00:00        0.00
  41755                JUNCTION  -nan(ind)     0.00   819.80     0  00:00        0.00
  41756                JUNCTION  -nan(ind)     0.00   813.27     0  00:00        0.00
  41757                JUNCTION  -nan(ind)     0.00   685.20     0  00:00        0.00
  41759                JUNCTION  -nan(ind)     0.00   690.00     0  00:00        0.00
  41760                JUNCTION  -nan(ind)     0.00   774.64     0  00:00        0.00
  41761                JUNCTION  -nan(ind)     0.00   751.93     0  00:00        0.00
  41762                JUNCTION  -nan(ind)     0.00   707.00     0  00:00        0.00
  41763                JUNCTION  -nan(ind)     0.00   699.92     0  00:00        0.00
  41764                JUNCTION  -nan(ind)     0.00   702.66     0  00:00        0.00
  41765                JUNCTION  -nan(ind)     0.00   838.78     0  00:00        0.00
  41766                JUNCTION  -nan(ind)     0.00   738.25     0  00:00        0.00
  41767                JUNCTION  -nan(ind)     0.00   710.30     0  00:00        0.00
  41768                JUNCTION  -nan(ind)     0.00   723.85     0  00:00        0.00
  41769                JUNCTION  -nan(ind)     0.00   688.07     0  00:00        0.00
  41770                JUNCTION  -nan(ind)     0.00   708.90     0  00:00        0.00
  41771                JUNCTION  -nan(ind)     0.00   708.05     0  00:00        0.00
  41772                JUNCTION  -nan(ind)     0.00   703.66     0  00:00        0.00
  41773                JUNCTION  -nan(ind)     0.00   695.15     0  00:00        0.00
  41774                JUNCTION  -nan(ind)     0.00   754.67     0  00:00        0.00
  41775                JUNCTION  -nan(ind)     0.00   762.51     0  00:00        0.00
  41776                JUNCTION  -nan(ind)     0.00   823.44     0  00:00        0.00
  41777                JUNCTION  -nan(ind)     0.00   828.44     0  00:00        0.00
  41778                JUNCTION  -nan(ind)     0.00   837.76     0  00:00        0.00
  41779                JUNCTION  -nan(ind)     0.00   768.29     0  00:00        0.00
  41780                JUNCTION  -nan(ind)     0.00   799.51     0  00:00        0.00
  41781                JUNCTION  -nan(ind)     0.00   821.10     0  00:00        0.00
  41782                JUNCTION  -nan(ind)     0.00   774.74     0  00:00        0.00
  41783                JUNCTION  -nan(ind)     0.00   816.93     0  00:00        0.00
  41784                JUNCTION  -nan(ind)     0.00   875.76     0  00:00        0.00
  41785                JUNCTION  -nan(ind)     0.00   691.29     0  00:00        0.00
  41786                JUNCTION  -nan(ind)     0.00   723.16     0  00:00        0.00
  41787                JUNCTION  -nan(ind)     0.00   701.55     0  00:00        0.00
  41788                JUNCTION  -nan(ind)     0.00   765.24     0  00:00        0.00
  41789                JUNCTION  -nan(ind)     0.00   719.96     0  00:00        0.00
  41790                JUNCTION  -nan(ind)     0.00   716.53     0  00:00        0.00
  41792                JUNCTION  -nan(ind)     0.00   686.22     0  00:00        0.00
  41793                JUNCTION  -nan(ind)     0.00   811.97     0  00:00        0.00
  41794                JUNCTION  -nan(ind)     0.00   857.13     0  00:00        0.00
  41795                JUNCTION  -nan(ind)     0.00   890.19     0  00:00        0.00
  41796                JUNCTION  -nan(ind)     0.00   748.69     0  00:00        0.00
  41797                JUNCTION  -nan(ind)     0.00   725.00     0  00:00        0.00
  41798                JUNCTION  -nan(ind)     0.00   707.83     0  00:00        0.00
  41799                JUNCTION  -nan(ind)     0.00   731.35     0  00:00        0.00
  41800                JUNCTION  -nan(ind)     0.00   718.05     0  00:00        0.00
  41801                JUNCTION  -nan(ind)     0.00   723.35     0  00:00        0.00
  41802                JUNCTION  -nan(ind)     0.00   822.63     0  00:00        0.00
  41803                JUNCTION  -nan(ind)     0.00   848.83     0  00:00        0.00
[...]
  30035864                1.00   -nan(ind)  -nan(ind)  -nan(ind)  -nan(ind)  -nan(ind)  -nan(ind)  -nan(ind)  -nan(ind)  -nan(ind)
  30035871                1.75   -nan(ind)  -nan(ind)  -nan(ind)  -nan(ind)  -nan(ind)  -nan(ind)  -nan(ind)  -nan(ind)  -nan(ind)
  30035872                1.00   -nan(ind)  -nan(ind)  -nan(ind)  -nan(ind)  -nan(ind)  -nan(ind)  -nan(ind)  -nan(ind)  -nan(ind)
  30035873                1.00   -nan(ind)  -nan(ind)  -nan(ind)  -nan(ind)  -nan(ind)  -nan(ind)  -nan(ind)  -nan(ind)  -nan(ind)
  30035874                1.00   -nan(ind)  -nan(ind)  -nan(ind)  -nan(ind)  -nan(ind)  -nan(ind)  -nan(ind)  -nan(ind)  -nan(ind)
  30035875                1.00   -nan(ind)  -nan(ind)  -nan(ind)  -nan(ind)  -nan(ind)  -nan(ind)  -nan(ind)  -nan(ind)  -nan(ind)
  30035891                1.00   -nan(ind)  -nan(ind)  -nan(ind)  -nan(ind)  -nan(ind)  -nan(ind)  -nan(ind)  -nan(ind)  -nan(ind)
  30036432                1.00   -nan(ind)  -nan(ind)  -nan(ind)  -nan(ind)  -nan(ind)  -nan(ind)  -nan(ind)  -nan(ind)  -nan(ind)
  30036663                1.00   -nan(ind)  -nan(ind)  -nan(ind)  -nan(ind)  -nan(ind)  -nan(ind)  -nan(ind)  -nan(ind)  -nan(ind)
  30036664                1.00   -nan(ind)  -nan(ind)  -nan(ind)  -nan(ind)  -nan(ind)  -nan(ind)  -nan(ind)  -nan(ind)  -nan(ind)
  30036665                1.00   -nan(ind)  -nan(ind)  -nan(ind)  -nan(ind)  -nan(ind)  -nan(ind)  -nan(ind)  -nan(ind)  -nan(ind)
  30036691                1.00   -nan(ind)  -nan(ind)  -nan(ind)  -nan(ind)  -nan(ind)  -nan(ind)  -nan(ind)  -nan(ind)  -nan(ind)
  30036692                1.00   -nan(ind)  -nan(ind)  -nan(ind)  -nan(ind)  -nan(ind)  -nan(ind)  -nan(ind)  -nan(ind)  -nan(ind)
  30036913                1.00   -nan(ind)  -nan(ind)  -nan(ind)  -nan(ind)  -nan(ind)  -nan(ind)  -nan(ind)  -nan(ind)  -nan(ind)
  30036990                1.00   -nan(ind)  -nan(ind)  -nan(ind)  -nan(ind)  -nan(ind)  -nan(ind)  -nan(ind)  -nan(ind)  -nan(ind)
  30036991                1.00   -nan(ind)  -nan(ind)  -nan(ind)  -nan(ind)  -nan(ind)  -nan(ind)  -nan(ind)  -nan(ind)  -nan(ind)
  30037190                1.00   -nan(ind)  -nan(ind)  -nan(ind)  -nan(ind)  -nan(ind)  -nan(ind)  -nan(ind)  -nan(ind)  -nan(ind)
  30037191                1.00   -nan(ind)  -nan(ind)  -nan(ind)  -nan(ind)  -nan(ind)  -nan(ind)  -nan(ind)  -nan(ind)  -nan(ind)
  30037192                1.00   -nan(ind)  -nan(ind)  -nan(ind)  -nan(ind)  -nan(ind)  -nan(ind)  -nan(ind)  -nan(ind)  -nan(ind)
  30037215                1.00   -nan(ind)  -nan(ind)  -nan(ind)  -nan(ind)  -nan(ind)  -nan(ind)  -nan(ind)  -nan(ind)  -nan(ind)
  30037216                1.00   -nan(ind)  -nan(ind)  -nan(ind)  -nan(ind)  -nan(ind)  -nan(ind)  -nan(ind)  -nan(ind)  -nan(ind)
  30037217                1.00   -nan(ind)  -nan(ind)  -nan(ind)  -nan(ind)  -nan(ind)  -nan(ind)  -nan(ind)  -nan(ind)  -nan(ind)
  30037227                2.96   -nan(ind)  -nan(ind)  -nan(ind)  -nan(ind)  -nan(ind)  -nan(ind)  -nan(ind)  -nan(ind)  -nan(ind)
  30037229                1.00   -nan(ind)  -nan(ind)  -nan(ind)  -nan(ind)  -nan(ind)  -nan(ind)  -nan(ind)  -nan(ind)  -nan(ind)
  30037454                1.00   -nan(ind)  -nan(ind)  -nan(ind)  -nan(ind)  -nan(ind)  -nan(ind)  -nan(ind)  -nan(ind)  -nan(ind)
  30037455                1.00   -nan(ind)  -nan(ind)  -nan(ind)  -nan(ind)  -nan(ind)  -nan(ind)  -nan(ind)  -nan(ind)  -nan(ind)
  30037456                1.00   -nan(ind)  -nan(ind)  -nan(ind)  -nan(ind)  -nan(ind)  -nan(ind)  -nan(ind)  -nan(ind)  -nan(ind)
  30037457                1.00   -nan(ind)  -nan(ind)  -nan(ind)  -nan(ind)  -nan(ind)  -nan(ind)  -nan(ind)  -nan(ind)  -nan(ind)
  30037458                1.00   -nan(ind)  -nan(ind)  -nan(ind)  -nan(ind)  -nan(ind)  -nan(ind)  -nan(ind)  -nan(ind)  -nan(ind)
  30037459                1.00   -nan(ind)  -nan(ind)  -nan(ind)  -nan(ind)  -nan(ind)  -nan(ind)  -nan(ind)  -nan(ind)  -nan(ind)
  30037460                1.00   -nan(ind)  -nan(ind)  -nan(ind)  -nan(ind)  -nan(ind)  -nan(ind)  -nan(ind)  -nan(ind)  -nan(ind)
  30037461                1.69   -nan(ind)  -nan(ind)  -nan(ind)  -nan(ind)  -nan(ind)  -nan(ind)  -nan(ind)  -nan(ind)  -nan(ind)
  30037462                1.00   -nan(ind)  -nan(ind)  -nan(ind)  -nan(ind)  -nan(ind)  -nan(ind)  -nan(ind)  -nan(ind)  -nan(ind)
  30037463                1.00   -nan(ind)  -nan(ind)  -nan(ind)  -nan(ind)  -nan(ind)  -nan(ind)  -nan(ind)  -nan(ind)  -nan(ind)
  30037472                1.00   -nan(ind)  -nan(ind)  -nan(ind)  -nan(ind)  -nan(ind)  -nan(ind)  -nan(ind)  -nan(ind)  -nan(ind)
  30037473                7.51   -nan(ind)  -nan(ind)  -nan(ind)  -nan(ind)  -nan(ind)  -nan(ind)  -nan(ind)  -nan(ind)  -nan(ind)
  30037475                1.00   -nan(ind)  -nan(ind)  -nan(ind)  -nan(ind)  -nan(ind)  -nan(ind)  -nan(ind)  -nan(ind)  -nan(ind)
  30037476                1.00   -nan(ind)  -nan(ind)  -nan(ind)  -nan(ind)  -nan(ind)  -nan(ind)  -nan(ind)  -nan(ind)  -nan(ind)
  30037477                1.00   -nan(ind)  -nan(ind)  -nan(ind)  -nan(ind)  -nan(ind)  -nan(ind)  -nan(ind)  -nan(ind)  -nan(ind)
  30037478                1.00   -nan(ind)  -nan(ind)  -nan(ind)  -nan(ind)  -nan(ind)  -nan(ind)  -nan(ind)  -nan(ind)  -nan(ind)
  30037809                1.00   -nan(ind)  -nan(ind)  -nan(ind)  -nan(ind)  -nan(ind)  -nan(ind)  -nan(ind)  -nan(ind)  -nan(ind)
  30038035                1.00   -nan(ind)  -nan(ind)  -nan(ind)  -nan(ind)  -nan(ind)  -nan(ind)  -nan(ind)  -nan(ind)  -nan(ind)
  30038036                1.00   -nan(ind)  -nan(ind)  -nan(ind)  -nan(ind)  -nan(ind)  -nan(ind)  -nan(ind)  -nan(ind)  -nan(ind)
  30038203                1.00   -nan(ind)  -nan(ind)  -nan(ind)  -nan(ind)  -nan(ind)  -nan(ind)  -nan(ind)  -nan(ind)  -nan(ind)
  30038226                1.00   -nan(ind)  -nan(ind)  -nan(ind)  -nan(ind)  -nan(ind)  -nan(ind)  -nan(ind)  -nan(ind)  -nan(ind)
  30038227                1.00   -nan(ind)  -nan(ind)  -nan(ind)  -nan(ind)  -nan(ind)  -nan(ind)  -nan(ind)  -nan(ind)  -nan(ind)
  30038227B               1.00   -nan(ind)  -nan(ind)  -nan(ind)  -nan(ind)  -nan(ind)  -nan(ind)  -nan(ind)  -nan(ind)  -nan(ind)
  30038266                1.00   -nan(ind)  -nan(ind)  -nan(ind)  -nan(ind)  -nan(ind)  -nan(ind)  -nan(ind)  -nan(ind)  -nan(ind)
  30038268                1.00   -nan(ind)  -nan(ind)  -nan(ind)  -nan(ind)  -nan(ind)  -nan(ind)  -nan(ind)  -nan(ind)  -nan(ind)
  30038269                1.00   -nan(ind)  -nan(ind)  -nan(ind)  -nan(ind)  -nan(ind)  -nan(ind)  -nan(ind)  -nan(ind)  -nan(ind)
  30038271                1.00   -nan(ind)  -nan(ind)  -nan(ind)  -nan(ind)  -nan(ind)  -nan(ind)  -nan(ind)  -nan(ind)  -nan(ind)
  30038276                1.00   -nan(ind)  -nan(ind)  -nan(ind)  -nan(ind)  -nan(ind)  -nan(ind)  -nan(ind)  -nan(ind)  -nan(ind)
  30038371                1.00   -nan(ind)  -nan(ind)  -nan(ind)  -nan(ind)  -nan(ind)  -nan(ind)  -nan(ind)  -nan(ind)  -nan(ind)
  30038849                1.36   -nan(ind)  -nan(ind)  -nan(ind)  -nan(ind)  -nan(ind)  -nan(ind)  -nan(ind)  -nan(ind)  -nan(ind)
  30038850                1.63   -nan(ind)  -nan(ind)  -nan(ind)  -nan(ind)  -nan(ind)  -nan(ind)  -nan(ind)  -nan(ind)  -nan(ind)
  30038931                1.00   -nan(ind)  -nan(ind)  -nan(ind)  -nan(ind)  -nan(ind)  -nan(ind)  -nan(ind)  -nan(ind)  -nan(ind)
  30038932                1.00   -nan(ind)  -nan(ind)  -nan(ind)  -nan(ind)  -nan(ind)  -nan(ind)  -nan(ind)  -nan(ind)  -nan(ind)
  30038933                1.00   -nan(ind)  -nan(ind)  -nan(ind)  -nan(ind)  -nan(ind)  -nan(ind)  -nan(ind)  -nan(ind)  -nan(ind)
  30271477                1.00   -nan(ind)  -nan(ind)  -nan(ind)  -nan(ind)  -nan(ind)  -nan(ind)  -nan(ind)  -nan(ind)  -nan(ind)
  30271482                1.00   -nan(ind)  -nan(ind)  -nan(ind)  -nan(ind)  -nan(ind)  -nan(ind)  -nan(ind)  -nan(ind)  -nan(ind)
  30371640                1.00   -nan(ind)  -nan(ind)  -nan(ind)  -nan(ind)  -nan(ind)  -nan(ind)  -nan(ind)  -nan(ind)  -nan(ind)
  30371759                1.00   -nan(ind)  -nan(ind)  -nan(ind)  -nan(ind)  -nan(ind)  -nan(ind)  -nan(ind)  -nan(ind)  -nan(ind)
  30371762                1.00   -nan(ind)  -nan(ind)  -nan(ind)  -nan(ind)  -nan(ind)  -nan(ind)  -nan(ind)  -nan(ind)  -nan(ind)
  30371777                1.21   -nan(ind)  -nan(ind)  -nan(ind)  -nan(ind)  -nan(ind)  -nan(ind)  -nan(ind)  -nan(ind)  -nan(ind)
  30371779                1.00   -nan(ind)  -nan(ind)  -nan(ind)  -nan(ind)  -nan(ind)  -nan(ind)  -nan(ind)  -nan(ind)  -nan(ind)
  30371781                1.00   -nan(ind)  -nan(ind)  -nan(ind)  -nan(ind)  -nan(ind)  -nan(ind)  -nan(ind)  -nan(ind)  -nan(ind)
  30371783                1.00   -nan(ind)  -nan(ind)  -nan(ind)  -nan(ind)  -nan(ind)  -nan(ind)  -nan(ind)  -nan(ind)  -nan(ind)
  30371784                1.00   -nan(ind)  -nan(ind)  -nan(ind)  -nan(ind)  -nan(ind)  -nan(ind)  -nan(ind)  -nan(ind)  -nan(ind)
  30371786                1.00   -nan(ind)  -nan(ind)  -nan(ind)  -nan(ind)  -nan(ind)  -nan(ind)  -nan(ind)  -nan(ind)  -nan(ind)
  30371788                1.00   -nan(ind)  -nan(ind)  -nan(ind)  -nan(ind)  -nan(ind)  -nan(ind)  -nan(ind)  -nan(ind)  -nan(ind)
  30371821                1.00   -nan(ind)  -nan(ind)  -nan(ind)  -nan(ind)  -nan(ind)  -nan(ind)  -nan(ind)  -nan(ind)  -nan(ind)
  30371823                1.00   -nan(ind)  -nan(ind)  -nan(ind)  -nan(ind)  -nan(ind)  -nan(ind)  -nan(ind)  -nan(ind)  -nan(ind)
  30371825                1.00   -nan(ind)  -nan(ind)  -nan(ind)  -nan(ind)  -nan(ind)  -nan(ind)  -nan(ind)  -nan(ind)  -nan(ind)
  30372199                1.00   -nan(ind)  -nan(ind)  -nan(ind)  -nan(ind)  -nan(ind)  -nan(ind)  -nan(ind)  -nan(ind)  -nan(ind)
  30372215                1.00   -nan(ind)  -nan(ind)  -nan(ind)  -nan(ind)  -nan(ind)  -nan(ind)  -nan(ind)  -nan(ind)  -nan(ind)
  30372217                1.00   -nan(ind)  -nan(ind)  -nan(ind)  -nan(ind)  -nan(ind)  -nan(ind)  -nan(ind)  -nan(ind)  -nan(ind)
  30372219                1.00   -nan(ind)  -nan(ind)  -nan(ind)  -nan(ind)  -nan(ind)  -nan(ind)  -nan(ind)  -nan(ind)  -nan(ind)
  30372221                1.00   -nan(ind)  -nan(ind)  -nan(ind)  -nan(ind)  -nan(ind)  -nan(ind)  -nan(ind)  -nan(ind)  -nan(ind)
  30372224                1.00   -nan(ind)  -nan(ind)  -nan(ind)  -nan(ind)  -nan(ind)  -nan(ind)  -nan(ind)  -nan(ind)  -nan(ind)
  30372226                1.00   -nan(ind)  -nan(ind)  -nan(ind)  -nan(ind)  -nan(ind)  -nan(ind)  -nan(ind)  -nan(ind)  -nan(ind)
  30372228                1.00   -nan(ind)  -nan(ind)  -nan(ind)  -nan(ind)  -nan(ind)  -nan(ind)  -nan(ind)  -nan(ind)  -nan(ind)
  30372280                1.00   -nan(ind)  -nan(ind)  -nan(ind)  -nan(ind)  -nan(ind)  -nan(ind)  -nan(ind)  -nan(ind)  -nan(ind)
  30372282                1.00   -nan(ind)  -nan(ind)  -nan(ind)  -nan(ind)  -nan(ind)  -nan(ind)  -nan(ind)  -nan(ind)  -nan(ind)
  30372284                1.00   -nan(ind)  -nan(ind)  -nan(ind)  -nan(ind)  -nan(ind)  -nan(ind)  -nan(ind)  -nan(ind)  -nan(ind)
  30372286                1.00   -nan(ind)  -nan(ind)  -nan(ind)  -nan(ind)  -nan(ind)  -nan(ind)  -nan(ind)  -nan(ind)  -nan(ind)
  30372288                1.00   -nan(ind)  -nan(ind)  -nan(ind)  -nan(ind)  -nan(ind)  -nan(ind)  -nan(ind)  -nan(ind)  -nan(ind)
  30372290                1.00   -nan(ind)  -nan(ind)  -nan(ind)  -nan(ind)  -nan(ind)  -nan(ind)  -nan(ind)  -nan(ind)  -nan(ind)
  30372330                1.00   -nan(ind)  -nan(ind)  -nan(ind)  -nan(ind)  -nan(ind)  -nan(ind)  -nan(ind)  -nan(ind)  -nan(ind)
  30372343                1.00   -nan(ind)  -nan(ind)  -nan(ind)  -nan(ind)  -nan(ind)  -nan(ind)  -nan(ind)  -nan(ind)  -nan(ind)
  30372345                1.00   -nan(ind)  -nan(ind)  -nan(ind)  -nan(ind)  -nan(ind)  -nan(ind)  -nan(ind)  -nan(ind)  -nan(ind)
  30372363                1.00   -nan(ind)  -nan(ind)  -nan(ind)  -nan(ind)  -nan(ind)  -nan(ind)  -nan(ind)  -nan(ind)  -nan(ind)
  30372365                1.00   -nan(ind)  -nan(ind)  -nan(ind)  -nan(ind)  -nan(ind)  -nan(ind)  -nan(ind)  -nan(ind)  -nan(ind)
  30372367                1.00   -nan(ind)  -nan(ind)  -nan(ind)  -nan(ind)  -nan(ind)  -nan(ind)  -nan(ind)  -nan(ind)  -nan(ind)
  30372381                1.00   -nan(ind)  -nan(ind)  -nan(ind)  -nan(ind)  -nan(ind)  -nan(ind)  -nan(ind)  -nan(ind)  -nan(ind)
  30372383                1.00   -nan(ind)  -nan(ind)  -nan(ind)  -nan(ind)  -nan(ind)  -nan(ind)  -nan(ind)  -nan(ind)  -nan(ind)
  30372424                1.00   -nan(ind)  -nan(ind)  -nan(ind)  -nan(ind)  -nan(ind)  -nan(ind)  -nan(ind)  -nan(ind)  -nan(ind)
  30372426                1.00   -nan(ind)  -nan(ind)  -nan(ind)  -nan(ind)  -nan(ind)  -nan(ind)  -nan(ind)  -nan(ind)  -nan(ind)
  30372428                1.00   -nan(ind)  -nan(ind)  -nan(ind)  -nan(ind)  -nan(ind)  -nan(ind)  -nan(ind)  -nan(ind)  -nan(ind)
  30372432                1.00   -nan(ind)  -nan(ind)  -nan(ind)  -nan(ind)  -nan(ind)  -nan(ind)  -nan(ind)  -nan(ind)  -nan(ind)
  30372436                1.00   -nan(ind)  -nan(ind)  -nan(ind)  -nan(ind)  -nan(ind)  -nan(ind)  -nan(ind)  -nan(ind)  -nan(ind)
  30372438                1.00   -nan(ind)  -nan(ind)  -nan(ind)  -nan(ind)  -nan(ind)  -nan(ind)  -nan(ind)  -nan(ind)  -nan(ind)
  30372442                1.00   -nan(ind)  -nan(ind)  -nan(ind)  -nan(ind)  -nan(ind)  -nan(ind)  -nan(ind)  -nan(ind)  -nan(ind)
  30372446                1.00   -nan(ind)  -nan(ind)  -nan(ind)  -nan(ind)  -nan(ind)  -nan(ind)  -nan(ind)  -nan(ind)  -nan(ind)
  30372454                1.78   -nan(ind)  -nan(ind)  -nan(ind)  -nan(ind)  -nan(ind)  -nan(ind)  -nan(ind)  -nan(ind)  -nan(ind)
  30372459                1.00   -nan(ind)  -nan(ind)  -nan(ind)  -nan(ind)  -nan(ind)  -nan(ind)  -nan(ind)  -nan(ind)  -nan(ind)
  30373083                1.00   -nan(ind)  -nan(ind)  -nan(ind)  -nan(ind)  -nan(ind)  -nan(ind)  -nan(ind)  -nan(ind)  -nan(ind)
  30388452                1.37   -nan(ind)  -nan(ind)  -nan(ind)  -nan(ind)  -nan(ind)  -nan(ind)  -nan(ind)  -nan(ind)  -nan(ind)
  30388560                1.00   -nan(ind)  -nan(ind)  -nan(ind)  -nan(ind)  -nan(ind)  -nan(ind)  -nan(ind)  -nan(ind)  -nan(ind)
  30388561                1.00   -nan(ind)  -nan(ind)  -nan(ind)  -nan(ind)  -nan(ind)  -nan(ind)  -nan(ind)  -nan(ind)  -nan(ind)
  30390399                1.46   -nan(ind)  -nan(ind)  -nan(ind)  -nan(ind)  -nan(ind)  -nan(ind)  -nan(ind)  -nan(ind)  -nan(ind)
  30390402                1.00   -nan(ind)  -nan(ind)  -nan(ind)  -nan(ind)  -nan(ind)  -nan(ind)  -nan(ind)  -nan(ind)  -nan(ind)
  30390403                2.15   -nan(ind)  -nan(ind)  -nan(ind)  -nan(ind)  -nan(ind)  -nan(ind)  -nan(ind)  -nan(ind)  -nan(ind)
  30395256                1.00   -nan(ind)  -nan(ind)  -nan(ind)  -nan(ind)  -nan(ind)  -nan(ind)  -nan(ind)  -nan(ind)  -nan(ind)
  30395284                1.00   -nan(ind)  -nan(ind)  -nan(ind)  -nan(ind)  -nan(ind)  -nan(ind)  -nan(ind)  -nan(ind)  -nan(ind)
  30406577                1.48   -nan(ind)  -nan(ind)  -nan(ind)  -nan(ind)  -nan(ind)  -nan(ind)  -nan(ind)  -nan(ind)  -nan(ind)
  30406585                1.57   -nan(ind)  -nan(ind)  -nan(ind)  -nan(ind)  -nan(ind)  -nan(ind)  -nan(ind)  -nan(ind)  -nan(ind)
  30406587                1.00   -nan(ind)  -nan(ind)  -nan(ind)  -nan(ind)  -nan(ind)  -nan(ind)  -nan(ind)  -nan(ind)  -nan(ind)
  30406588                1.00   -nan(ind)  -nan(ind)  -nan(ind)  -nan(ind)  -nan(ind)  -nan(ind)  -nan(ind)  -nan(ind)  -nan(ind)
  30406589                6.36   -nan(ind)  -nan(ind)  -nan(ind)  -nan(ind)  -nan(ind)  -nan(ind)  -nan(ind)  -nan(ind)  -nan(ind)
  30406590                1.00   -nan(ind)  -nan(ind)  -nan(ind)  -nan(ind)  -nan(ind)  -nan(ind)  -nan(ind)  -nan(ind)  -nan(ind)
  30406591                1.85   -nan(ind)  -nan(ind)  -nan(ind)  -nan(ind)  -nan(ind)  -nan(ind)  -nan(ind)  -nan(ind)  -nan(ind)
  30406592                1.06   -nan(ind)  -nan(ind)  -nan(ind)  -nan(ind)  -nan(ind)  -nan(ind)  -nan(ind)  -nan(ind)  -nan(ind)
  30406593                1.00   -nan(ind)  -nan(ind)  -nan(ind)  -nan(ind)  -nan(ind)  -nan(ind)  -nan(ind)  -nan(ind)  -nan(ind)
  30406594                1.25   -nan(ind)  -nan(ind)  -nan(ind)  -nan(ind)  -nan(ind)  -nan(ind)  -nan(ind)  -nan(ind)  -nan(ind)
  30406595                1.00   -nan(ind)  -nan(ind)  -nan(ind)  -nan(ind)  -nan(ind)  -nan(ind)  -nan(ind)  -nan(ind)  -nan(ind)
  30406596                1.00   -nan(ind)  -nan(ind)  -nan(ind)  -nan(ind)  -nan(ind)  -nan(ind)  -nan(ind)  -nan(ind)  -nan(ind)
  30406597                1.00   -nan(ind)  -nan(ind)  -nan(ind)  -nan(ind)  -nan(ind)  -nan(ind)  -nan(ind)  -nan(ind)  -nan(ind)
  30406598                1.86   -nan(ind)  -nan(ind)  -nan(ind)  -nan(ind)  -nan(ind)  -nan(ind)  -nan(ind)  -nan(ind)  -nan(ind)
  30406599                2.59   -nan(ind)  -nan(ind)  -nan(ind)  -nan(ind)  -nan(ind)  -nan(ind)  -nan(ind)  -nan(ind)  -nan(ind)
  30406600                1.00   -nan(ind)  -nan(ind)  -nan(ind)  -nan(ind)  -nan(ind)  -nan(ind)  -nan(ind)  -nan(ind)  -nan(ind)
  30406601                1.00   -nan(ind)  -nan(ind)  -nan(ind)  -nan(ind)  -nan(ind)  -nan(ind)  -nan(ind)  -nan(ind)  -nan(ind)
  30408433                1.00   -nan(ind)  -nan(ind)  -nan(ind)  -nan(ind)  -nan(ind)  -nan(ind)  -nan(ind)  -nan(ind)  -nan(ind)
  <NULL>                  1.00   -nan(ind)  -nan(ind)  -nan(ind)  -nan(ind)  -nan(ind)  -nan(ind)  -nan(ind)  -nan(ind)  -nan(ind)
  CDT-19                  2.32   -nan(ind)  -nan(ind)  -nan(ind)  -nan(ind)  -nan(ind)  -nan(ind)  -nan(ind)  -nan(ind)  -nan(ind)
  CDT-21                  1.00   -nan(ind)  -nan(ind)  -nan(ind)  -nan(ind)  -nan(ind)  -nan(ind)  -nan(ind)  -nan(ind)  -nan(ind)
  CDT-23                 47.09   -nan(ind)  -nan(ind)  -nan(ind)  -nan(ind)  -nan(ind)  -nan(ind)  -nan(ind)  -nan(ind)  -nan(ind)
  CDT-25                  1.00   -nan(ind)  -nan(ind)  -nan(ind)  -nan(ind)  -nan(ind)  -nan(ind)  -nan(ind)  -nan(ind)  -nan(ind)
  CDT-31                  1.00   -nan(ind)  -nan(ind)  -nan(ind)  -nan(ind)  -nan(ind)  -nan(ind)  -nan(ind)  -nan(ind)  -nan(ind)
  CDT-33                  1.00   -nan(ind)  -nan(ind)  -nan(ind)  -nan(ind)  -nan(ind)  -nan(ind)  -nan(ind)  -nan(ind)  -nan(ind)
  CDT-35                  1.00   -nan(ind)  -nan(ind)  -nan(ind)  -nan(ind)  -nan(ind)  -nan(ind)  -nan(ind)  -nan(ind)  -nan(ind)
  
  
  *************************
  Conduit Surcharge Summary
  *************************
  
  No conduits were surcharged.
  
  
  ***************
  Pumping Summary
  ***************
  
  ---------------------------------------------------------------------------------------------------------
                                                  Min       Avg       Max     Total     Power    % Time Off
                        Percent   Number of      Flow      Flow      Flow    Volume     Usage    Pump Curve
  Pump                 Utilized   Start-Ups       GPM       GPM       GPM  10^6 gal     Kw-hr    Low   High
  ---------------------------------------------------------------------------------------------------------
  PUMP-11              -nan(ind)           0      0.00      0.00      0.00     0.000      0.00    0.0    0.0
  PUMP-13              -nan(ind)           0      0.00      0.00      0.00     0.000      0.00    0.0    0.0
  PUMP-15              -nan(ind)           0      0.00      0.00      0.00     0.000      0.00    0.0    0.0
  PUMP-17              -nan(ind)           0      0.00      0.00      0.00     0.000      0.00    0.0    0.0
  PUMP-19              -nan(ind)           0      0.00      0.00      0.00     0.000      0.00    0.0    0.0
  PUMP-23              -nan(ind)           0      0.00      0.00      0.00     0.000      0.00    0.0    0.0
  PUMP-25              -nan(ind)           0      0.00      0.00      0.00     0.000      0.00    0.0    0.0
  

  Analysis begun on:  Sat Nov 30 08:10:21 2019
  Analysis ended on:  Sat Nov 30 08:10:21 2019
  Total elapsed time: < 1 sec