
  EPA STORM WATER MANAGEMENT MODEL - VERSION 5.1 (Build 5.1.013)
  --------------------------------------------------------------

  
  ERROR 209: undefined object - at line 60 of [SUBCATCHMENT] section:
  19-10-001_1	-	19-10-001	162.492074	0.000000	0.000000	0.000000	0.000000

  
  ERROR 209: undefined object - at line 61 of [SUBCATCHMENT] section:
  19-11-007_1	-	19-11-007	80.016492	0.000000	0.000000	0.000000	0.000000

  
  ERROR 209: undefined object - at line 62 of [SUBCATCHMENT] section:
  19-11-017_1	-	19-11-017	80.896168	0.000000	0.000000	0.000000	0.000000

  
  ERROR 209: undefined object - at line 63 of [SUBCATCHMENT] section:
  19-12-004_1	-	19-12-004	164.770785	0.000000	0.000000	0.000000	0.000000

  
  ERROR 209: undefined object - at line 64 of [SUBCATCHMENT] section:
  19-13-009_1	-	19-13-009	32.903571	0.000000	0.000000	0.000000	0.000000

  
  ERROR 209: undefined object - at line 65 of [SUBCATCHMENT] section:
  19-13-047_1	-	19-13-047	121.689318	0.000000	0.000000	0.000000	0.000000

  
  ERROR 209: undefined object - at line 66 of [SUBCATCHMENT] section:
  19-14-002_1	-	19-14-002	74.322890	0.000000	0.000000	0.000000	0.000000

  
  ERROR 209: undefined object - at line 67 of [SUBCATCHMENT] section:
  19-14-008_1	-	19-14-008	73.651368	0.000000	0.000000	0.000000	0.000000

  
  ERROR 209: undefined object - at line 68 of [SUBCATCHMENT] section:
  19-15-001_1	-	19-15-001	115.008821	0.000000	0.000000	0.000000	0.000000

  
  ERROR 209: undefined object - at line 69 of [SUBCATCHMENT] section:
  19-16-001_1	-	19-16-001	200.979164	0.000000	0.000000	0.000000	0.000000

  
  ERROR 209: undefined object - at line 70 of [SUBCATCHMENT] section:
  19-17-001_1	-	19-17-001	380.144963	0.000000	0.000000	0.000000	0.000000

  
  ERROR 209: undefined object - at line 71 of [SUBCATCHMENT] section:
  19-5-003_1	-	19-5-003	64.505840	0.000000	0.000000	0.000000	0.000000

  
  ERROR 209: undefined object - at line 72 of [SUBCATCHMENT] section:
  19-5-009_1	-	19-5-009	109.903281	0.000000	0.000000	0.000000	0.000000

  
  ERROR 209: undefined object - at line 73 of [SUBCATCHMENT] section:
  19-6-002_1	-	19-6-002	164.793267	0.000000	0.000000	0.000000	0.000000

  
  ERROR 209: undefined object - at line 74 of [SUBCATCHMENT] section:
  19-7-006_1	-	19-7-006	173.390452	0.000000	0.000000	0.000000	0.000000

  
  ERROR 209: undefined object - at line 75 of [SUBCATCHMENT] section:
  19-8-001_1	-	19-8-001	211.506518	0.000000	0.000000	0.000000	0.000000

  
  ERROR 209: undefined object - at line 76 of [SUBCATCHMENT] section:
  19-9-026_1	-	19-9-026	102.927117	0.000000	0.000000	0.000000	0.000000

  
  ERROR 209: undefined object - at line 77 of [SUBCATCHMENT] section:
  20-10-007_1	-	20-10-007	300.610788	0.000000	0.000000	0.000000	0.000000

  
  ERROR 209: undefined object - at line 78 of [SUBCATCHMENT] section:
  20-10-113_1	-	20-10-113	80.670136	0.000000	0.000000	0.000000	0.000000

  
  ERROR 209: undefined object - at line 79 of [SUBCATCHMENT] section:
  20-11-001_1	-	20-11-001	241.815445	0.000000	0.000000	0.000000	0.000000

  
  ERROR 209: undefined object - at line 80 of [SUBCATCHMENT] section:
  20-12-091_1	-	20-12-091	36.687190	0.000000	0.000000	0.000000	0.000000

  
  ERROR 209: undefined object - at line 81 of [SUBCATCHMENT] section:
  20-13-003_1	-	20-13-003	169.344746	0.000000	0.000000	0.000000	0.000000

  
  ERROR 209: undefined object - at line 82 of [SUBCATCHMENT] section:
  20-13-010_1	-	20-13-010	64.009075	0.000000	0.000000	0.000000	0.000000

  
  ERROR 209: undefined object - at line 83 of [SUBCATCHMENT] section:
  20-14-003_1	-	20-14-003	132.362115	0.000000	0.000000	0.000000	0.000000

  
  ERROR 209: undefined object - at line 84 of [SUBCATCHMENT] section:
  20-15-003_1	-	20-15-003	89.202158	0.000000	0.000000	0.000000	0.000000

  
  ERROR 209: undefined object - at line 85 of [SUBCATCHMENT] section:
  20-16-001_1	-	20-16-001	203.390645	0.000000	0.000000	0.000000	0.000000

  
  ERROR 209: undefined object - at line 86 of [SUBCATCHMENT] section:
  20-16-017_1	-	20-16-017	98.756006	0.000000	0.000000	0.000000	0.000000

  
  ERROR 209: undefined object - at line 87 of [SUBCATCHMENT] section:
  20-16-019_1	-	20-16-019	201.431729	0.000000	0.000000	0.000000	0.000000

  
  ERROR 209: undefined object - at line 88 of [SUBCATCHMENT] section:
  20-17-020_1	-	20-17-020	171.418358	0.000000	0.000000	0.000000	0.000000

  
  ERROR 209: undefined object - at line 89 of [SUBCATCHMENT] section:
  20-5-002_1	-	20-5-002	69.348521	0.000000	0.000000	0.000000	0.000000

  
  ERROR 209: undefined object - at line 90 of [SUBCATCHMENT] section:
  20-6-003_1	-	20-6-003	246.323523	0.000000	0.000000	0.000000	0.000000

  
  ERROR 209: undefined object - at line 91 of [SUBCATCHMENT] section:
  20-7-003_1	-	20-7-003	292.828985	0.000000	0.000000	0.000000	0.000000

  
  ERROR 209: undefined object - at line 92 of [SUBCATCHMENT] section:
  20-9-010_1	-	20-9-010	85.706348	0.000000	0.000000	0.000000	0.000000

  
  ERROR 209: undefined object - at line 93 of [SUBCATCHMENT] section:
  21-1-001_1	-	21-1-001	585.336012	0.000000	0.000000	0.000000	0.000000

  
  ERROR 209: undefined object - at line 94 of [SUBCATCHMENT] section:
  21-11-006_1	-	21-11-006	120.399353	0.000000	0.000000	0.000000	0.000000

  
  ERROR 209: undefined object - at line 95 of [SUBCATCHMENT] section:
  21-13-045_1	-	21-13-045	213.136387	0.000000	0.000000	0.000000	0.000000

  
  ERROR 209: undefined object - at line 96 of [SUBCATCHMENT] section:
  21-14-003_1	-	21-14-003	79.388134	0.000000	0.000000	0.000000	0.000000

  
  ERROR 209: undefined object - at line 97 of [SUBCATCHMENT] section:
  21-14-043_1	-	21-14-043	115.585838	0.000000	0.000000	0.000000	0.000000

  
  ERROR 209: undefined object - at line 98 of [SUBCATCHMENT] section:
  21-15-007_1	-	21-15-007	188.931372	0.000000	0.000000	0.000000	0.000000

  
  ERROR 209: undefined object - at line 99 of [SUBCATCHMENT] section:
  21-16-011_1	-	21-16-011	93.870993	0.000000	0.000000	0.000000	0.000000

  
  ERROR 209: undefined object - at line 100 of [SUBCATCHMENT] section:
  21-16-034_1	-	21-16-034	78.628474	0.000000	0.000000	0.000000	0.000000

  
  ERROR 209: undefined object - at line 101 of [SUBCATCHMENT] section:
  21-2-006A_1	-	21-2-006A	232.628822	0.000000	0.000000	0.000000	0.000000

  
  ERROR 209: undefined object - at line 102 of [SUBCATCHMENT] section:
  21-4-003_1	-	21-4-003	112.039222	0.000000	0.000000	0.000000	0.000000

  
  ERROR 209: undefined object - at line 103 of [SUBCATCHMENT] section:
  21-5-004_1	-	21-5-004	254.024175	0.000000	0.000000	0.000000	0.000000

  
  ERROR 209: undefined object - at line 104 of [SUBCATCHMENT] section:
  21-7-006_1	-	21-7-006	323.584114	0.000000	0.000000	0.000000	0.000000

  
  ERROR 209: undefined object - at line 105 of [SUBCATCHMENT] section:
  21-7-014_1	-	21-7-014	288.038189	0.000000	0.000000	0.000000	0.000000

  
  ERROR 209: undefined object - at line 106 of [SUBCATCHMENT] section:
  21-8-001_1	-	21-8-001	147.607578	0.000000	0.000000	0.000000	0.000000

  
  ERROR 209: undefined object - at line 107 of [SUBCATCHMENT] section:
  21-8-064_1	-	21-8-064	152.541782	0.000000	0.000000	0.000000	0.000000

  
  ERROR 209: undefined object - at line 108 of [SUBCATCHMENT] section:
  22-10-019_1	-	22-10-019	242.890713	0.000000	0.000000	0.000000	0.000000

  
  ERROR 209: undefined object - at line 109 of [SUBCATCHMENT] section:
  22-12-001_1	-	22-12-001	199.306682	0.000000	0.000000	0.000000	0.000000

  
  ERROR 209: undefined object - at line 110 of [SUBCATCHMENT] section:
  22-12-033_1	-	22-12-033	77.739423	0.000000	0.000000	0.000000	0.000000

  
  ERROR 209: undefined object - at line 111 of [SUBCATCHMENT] section:
  22-13-045_1	-	22-13-045	57.249725	0.000000	0.000000	0.000000	0.000000

  
  ERROR 209: undefined object - at line 112 of [SUBCATCHMENT] section:
  22-13-048_1	-	22-13-048	22.724684	0.000000	0.000000	0.000000	0.000000

  
  ERROR 209: undefined object - at line 113 of [SUBCATCHMENT] section:
  22-14-017_1	-	22-14-017	133.226881	0.000000	0.000000	0.000000	0.000000

  
  ERROR 209: undefined object - at line 114 of [SUBCATCHMENT] section:
  22-14-031_1	-	22-14-031	82.337432	0.000000	0.000000	0.000000	0.000000

  
  ERROR 209: undefined object - at line 115 of [SUBCATCHMENT] section:
  22-15-001_1	-	22-15-001	150.848588	0.000000	0.000000	0.000000	0.000000

  
  ERROR 209: undefined object - at line 116 of [SUBCATCHMENT] section:
  22-15-030_1	-	22-15-030	77.131442	0.000000	0.000000	0.000000	0.000000

  
  ERROR 209: undefined object - at line 117 of [SUBCATCHMENT] section:
  22-15-057_1	-	22-15-057	92.244085	0.000000	0.000000	0.000000	0.000000

  
  ERROR 209: undefined object - at line 118 of [SUBCATCHMENT] section:
  22-16-063_1	-	22-16-063	111.617306	0.000000	0.000000	0.000000	0.000000

  
  ERROR 209: undefined object - at line 119 of [SUBCATCHMENT] section:
  22-16-068_1	-	22-16-068	130.098565	0.000000	0.000000	0.000000	0.000000

  
  ERROR 209: undefined object - at line 120 of [SUBCATCHMENT] section:
  22-16-082_1	-	22-16-082	56.951819	0.000000	0.000000	0.000000	0.000000

  
  ERROR 209: undefined object - at line 121 of [SUBCATCHMENT] section:
  22-18-001_1	-	22-18-001	216.645361	0.000000	0.000000	0.000000	0.000000

  
  ERROR 209: undefined object - at line 122 of [SUBCATCHMENT] section:
  22-5-012_1	-	22-5-012	276.047081	0.000000	0.000000	0.000000	0.000000

  
  ERROR 209: undefined object - at line 123 of [SUBCATCHMENT] section:
  22-6-034_1	-	22-6-034	699.659606	0.000000	0.000000	0.000000	0.000000

  
  ERROR 209: undefined object - at line 124 of [SUBCATCHMENT] section:
  22-8-073_1	-	22-8-073	298.962184	0.000000	0.000000	0.000000	0.000000

  
  ERROR 209: undefined object - at line 125 of [SUBCATCHMENT] section:
  23-10-998_1	-	23-10-998	375.415342	0.000000	0.000000	0.000000	0.000000

  
  ERROR 209: undefined object - at line 126 of [SUBCATCHMENT] section:
  23-11-001_1	-	23-11-001	82.464088	0.000000	0.000000	0.000000	0.000000

  
  ERROR 209: undefined object - at line 127 of [SUBCATCHMENT] section:
  23-11-004_1	-	23-11-004	94.794169	0.000000	0.000000	0.000000	0.000000

  
  ERROR 209: undefined object - at line 128 of [SUBCATCHMENT] section:
  23-12-003_1	-	23-12-003	231.962691	0.000000	0.000000	0.000000	0.000000

  
  ERROR 209: undefined object - at line 129 of [SUBCATCHMENT] section:
  23-12-015_1	-	23-12-015	52.940964	0.000000	0.000000	0.000000	0.000000

  
  ERROR 209: undefined object - at line 130 of [SUBCATCHMENT] section:
  23-12-112_1	-	23-12-112	119.874490	0.000000	0.000000	0.000000	0.000000

  
  ERROR 209: undefined object - at line 131 of [SUBCATCHMENT] section:
  23-13-013_1	-	23-13-013	125.715395	0.000000	0.000000	0.000000	0.000000

  
  ERROR 209: undefined object - at line 132 of [SUBCATCHMENT] section:
  23-13-043A_1	-	23-13-043A	133.733383	0.000000	0.000000	0.000000	0.000000

  
  ERROR 209: undefined object - at line 133 of [SUBCATCHMENT] section:
  23-14-019A_1	-	23-14-019A	80.002652	0.000000	0.000000	0.000000	0.000000

  
  ERROR 209: undefined object - at line 134 of [SUBCATCHMENT] section:
  23-15-001_1	-	23-15-001	171.194527	0.000000	0.000000	0.000000	0.000000

  
  ERROR 209: undefined object - at line 135 of [SUBCATCHMENT] section:
  23-15-064_1	-	23-15-064	136.990345	0.000000	0.000000	0.000000	0.000000

  
  ERROR 209: undefined object - at line 136 of [SUBCATCHMENT] section:
  23-16-046_1	-	23-16-046	225.242141	0.000000	0.000000	0.000000	0.000000

  
  ERROR 209: undefined object - at line 137 of [SUBCATCHMENT] section:
  23-17-034_1	-	23-17-034	235.400525	0.000000	0.000000	0.000000	0.000000

  
  ERROR 209: undefined object - at line 138 of [SUBCATCHMENT] section:
  23-18-003_1	-	23-18-003	202.091160	0.000000	0.000000	0.000000	0.000000

  
  ERROR 209: undefined object - at line 139 of [SUBCATCHMENT] section:
  23-2-002_1	-	23-2-002	304.987561	0.000000	0.000000	0.000000	0.000000

  
  ERROR 209: undefined object - at line 140 of [SUBCATCHMENT] section:
  23-2-003_1	-	23-2-003	95.995584	0.000000	0.000000	0.000000	0.000000

  
  ERROR 209: undefined object - at line 141 of [SUBCATCHMENT] section:
  23-2-005_1	-	23-2-005	187.262543	0.000000	0.000000	0.000000	0.000000

  
  ERROR 209: undefined object - at line 142 of [SUBCATCHMENT] section:
  23-3-004_1	-	23-3-004	233.917814	0.000000	0.000000	0.000000	0.000000

  
  ERROR 209: undefined object - at line 143 of [SUBCATCHMENT] section:
  23-4-005_1	-	23-4-005	352.816052	0.000000	0.000000	0.000000	0.000000

  
  ERROR 209: undefined object - at line 144 of [SUBCATCHMENT] section:
  23-7-016A_1	-	23-7-016A	251.152371	0.000000	0.000000	0.000000	0.000000

  
  ERROR 209: undefined object - at line 145 of [SUBCATCHMENT] section:
  23-7-031_1	-	23-7-031	93.233309	0.000000	0.000000	0.000000	0.000000

  
  ERROR 209: undefined object - at line 146 of [SUBCATCHMENT] section:
  23-7-062A_1	-	23-7-062A	96.819742	0.000000	0.000000	0.000000	0.000000

  
  ERROR 209: undefined object - at line 147 of [SUBCATCHMENT] section:
  23-8-009_1	-	23-8-009	119.849022	0.000000	0.000000	0.000000	0.000000

  
  ERROR 209: undefined object - at line 148 of [SUBCATCHMENT] section:
  24-11-003_1	-	24-11-003	98.394545	0.000000	0.000000	0.000000	0.000000

  
  ERROR 209: undefined object - at line 149 of [SUBCATCHMENT] section:
  24-14-049_1	-	24-14-049	70.674444	0.000000	0.000000	0.000000	0.000000

  
  ERROR 209: undefined object - at line 150 of [SUBCATCHMENT] section:
  24-15-069_1	-	24-15-069	145.521099	0.000000	0.000000	0.000000	0.000000

  
  ERROR 209: undefined object - at line 151 of [SUBCATCHMENT] section:
  24-16-005_1	-	24-16-005	107.770860	0.000000	0.000000	0.000000	0.000000

  
  ERROR 209: undefined object - at line 152 of [SUBCATCHMENT] section:
  24-8-003_1	-	24-8-003	181.674278	0.000000	0.000000	0.000000	0.000000

  
  ERROR 209: undefined object - at line 153 of [SUBCATCHMENT] section:
  25-13-004_1	-	25-13-004	294.640847	0.000000	0.000000	0.000000	0.000000

  
  ERROR 209: undefined object - at line 154 of [SUBCATCHMENT] section:
  25-13-004_2	-	25-13-004	133.220603	0.000000	0.000000	0.000000	0.000000

  
  ERROR 209: undefined object - at line 155 of [SUBCATCHMENT] section:
  25-13-012_1	-	25-13-012	227.744183	0.000000	0.000000	0.000000	0.000000

  
  ERROR 209: undefined object - at line 156 of [SUBCATCHMENT] section:
  25-14-005_1	-	25-14-005	183.355824	0.000000	0.000000	0.000000	0.000000

  
  ERROR 209: undefined object - at line 157 of [SUBCATCHMENT] section:
  25-15-025_1	-	25-15-025	161.986040	0.000000	0.000000	0.000000	0.000000

  
  ERROR 209: undefined object - at line 158 of [SUBCATCHMENT] section:
  25-15-071_1	-	25-15-071	213.308879	0.000000	0.000000	0.000000	0.000000

  
  ERROR 209: undefined object - at line 159 of [SUBCATCHMENT] section:
  25-15-071_2	-	25-15-071	81.427642	0.000000	0.000000	0.000000	0.000000

  
  Maximum error count exceeded.

  Analysis begun on:  Sat Nov 30 08:10:22 2019
  Analysis ended on:  Sat Nov 30 08:10:22 2019
  Total elapsed time: < 1 sec