
  EPA STORM WATER MANAGEMENT MODEL - VERSION 5.1 (Build 5.1.013)
  --------------------------------------------------------------

  
  *********************************************************
  NOTE: The summary statistics displayed in this report are
  based on results found at every computational time step,  
  not just on results from each reporting time step.
  *********************************************************
  
  ****************
  Analysis Options
  ****************
  Flow Units ............... CFS
  Process Models:
    Rainfall/Runoff ........ NO
    RDII ................... NO
    Snowmelt ............... NO
    Groundwater ............ NO
    Flow Routing ........... YES
    Ponding Allowed ........ NO
    Water Quality .......... NO
  Flow Routing Method ...... DYNWAVE
  Surcharge Method ......... EXTRAN
  Starting Date ............ 01/01/2002 00:00:00
  Ending Date .............. 01/01/2002 00:00:00
  Antecedent Dry Days ...... 5.0
  Report Time Step ......... 00:05:00
  Routing Time Step ........ 300.00 sec
  Variable Time Step ....... YES
  Maximum Trials ........... 8
  Number of Threads ........ 8
  Head Tolerance ........... 0.005000 ft
  
  
  **************************        Volume        Volume
  Flow Routing Continuity        acre-feet      10^6 gal
  **************************     ---------     ---------
  Dry Weather Inflow .......        66.080        21.533
  Wet Weather Inflow .......         0.000         0.000
  Groundwater Inflow .......         0.000         0.000
  RDII Inflow ..............         0.000         0.000
  External Inflow ..........         0.000         0.000
  External Outflow .........        60.240        19.630
  Flooding Loss ............         0.000         0.000
  Evaporation Loss .........         0.000         0.000
  Exfiltration Loss ........         0.000         0.000
  Initial Stored Volume ....         0.000         0.000
  Final Stored Volume ......         6.038         1.968
  Continuity Error (%) .....        -0.300
  
  
  *************************
  Highest Continuity Errors
  *************************
  Node 630000 (7.74%)
  Node 629200 (5.40%)
  Node 670600 (4.72%)
  Node 26 (4.36%)
  Node 628800 (3.45%)
  
  
  ***************************
  Time-Step Critical Elements
  ***************************
  Link 336204 (99.96%)
  
  
  ********************************
  Highest Flow Instability Indexes
  ********************************
  All links are stable.
  
  
  *************************
  Routing Time Step Summary
  *************************
  Minimum Time Step           :    10.95 sec
  Average Time Step           :    16.00 sec
  Maximum Time Step           :   186.29 sec
  Percent in Steady State     :     0.00
  Average Iterations per Step :     2.00
  Percent Not Converging      :     0.02
  
  
  ******************
  Node Depth Summary
  ******************
  
  ---------------------------------------------------------------------------------
                                 Average  Maximum  Maximum  Time of Max    Reported
                                   Depth    Depth      HGL   Occurrence   Max Depth
  Node                 Type         Feet     Feet     Feet  days hr:min        Feet
  ---------------------------------------------------------------------------------
  20                   JUNCTION     0.48     0.49  1409.89     0  12:40        0.49
  22                   JUNCTION     0.29     0.29  1416.20     0  04:38        0.29
  24                   JUNCTION     0.22     0.23  1458.23     0  01:22        0.23
  26                   JUNCTION     0.25     0.26  1450.93     0  02:41        0.26
  28                   JUNCTION     0.17     0.18  1461.51     0  16:16        0.18
  30                   JUNCTION     0.00     0.00  1472.15     0  00:00        0.00
  32                   JUNCTION     1.36     1.37  1407.75     1  00:00        1.37
  34                   JUNCTION     0.71     0.73  1412.97     1  00:00        0.73
  36                   JUNCTION     0.36     0.42  1408.45     0  00:34        0.42
  38                   JUNCTION     0.53     0.54  1442.65     0  04:34        0.54
  622000               JUNCTION     0.34     0.38  1444.38     0  01:34        0.38
  622200               JUNCTION     0.60     0.61  1436.99     0  07:03        0.61
  622400               JUNCTION     0.24     0.24  1456.26     0  05:27        0.24
  622600               JUNCTION     0.70     0.77  1432.85     0  01:05        0.77
  622800               JUNCTION     1.09     1.11  1425.49     0  07:58        1.11
  623600               JUNCTION     0.45     0.45  1440.10     0  21:13        0.45
  624200               JUNCTION     1.33     1.37  1408.79     0  09:11        1.37
  624400               JUNCTION     1.21     1.23  1417.19     0  08:33        1.23
  624600               JUNCTION     0.28     0.28  1446.12     0  08:03        0.28
  624800               JUNCTION     0.45     0.45  1432.57     0  13:34        0.45
  626200               JUNCTION     0.81     0.82  1416.92     0  12:50        0.82
  626400               JUNCTION     0.60     0.62  1429.64     0  02:00        0.62
  627000               JUNCTION     0.52     0.52  1403.66     0  12:35        0.52
  627200               JUNCTION     2.29     2.37  1395.02     1  00:00        2.37
  627400               JUNCTION     0.00     0.00  1400.43     0  00:00        0.00
  627800               JUNCTION     0.96     0.97  1402.45     0  12:58        0.97
  628000               JUNCTION     1.70     1.73  1405.45     1  00:00        1.73
  628200               JUNCTION     0.93     0.95  1409.99     1  00:00        0.95
  628400               JUNCTION     0.22     0.22  1428.22     0  07:46        0.22
  628600               JUNCTION     0.67     0.68  1416.12     1  00:00        0.68
  628800               JUNCTION     0.41     0.43  1422.77     1  00:00        0.43
  629000               JUNCTION     0.15     0.15  1440.15     0  10:14        0.15
  629200               JUNCTION     0.24     0.25  1440.66     0  05:11        0.25
  629400               JUNCTION     0.28     0.29  1429.53     1  00:00        0.29
  630000               JUNCTION     0.30     0.32  1440.35     1  00:00        0.32
  630200               JUNCTION     0.30     0.32  1426.13     1  00:00        0.32
  631000               JUNCTION     2.26     2.33  1401.70     1  00:00        2.33
  637400               JUNCTION     0.00     0.00  1562.34     0  00:00        0.00
  637600               JUNCTION     0.00     0.00  1539.28     0  00:00        0.00
  637800               JUNCTION     0.00     0.00  1594.95     0  00:00        0.00
  638000               JUNCTION     0.00     0.00  1547.38     0  00:00        0.00
  638200               JUNCTION     0.00     0.00  1496.29     0  00:00        0.00
  638400               JUNCTION     0.00     0.00  1572.87     0  00:00        0.00
  638600               JUNCTION     0.00     0.00  1643.60     0  00:00        0.00
  638800               JUNCTION     0.00     0.00  1511.04     0  00:00        0.00
  639000               JUNCTION     0.00     0.00  1447.86     0  00:00        0.00
  639400               JUNCTION     0.00     0.00  1515.28     0  00:00        0.00
  639600               JUNCTION     0.00     0.00  1473.24     0  00:00        0.00
  639800               JUNCTION     0.00     0.00  1426.81     0  00:00        0.00
  640000               JUNCTION     0.00     0.00  1433.15     0  00:00        0.00
  640200               JUNCTION     0.00     0.00  1428.52     0  00:00        0.00
  640400               JUNCTION     0.00     0.00  1458.34     0  00:00        0.00
  658400               JUNCTION     2.00     2.07  1393.79     1  00:00        2.07
  664200               JUNCTION     2.28     2.36  1398.36     1  00:00        2.36
  664400               JUNCTION     0.00     0.00  1403.57     0  00:00        0.00
  664800               JUNCTION     0.00     0.00  1519.20     0  00:00        0.00
  665000               JUNCTION     0.00     0.00  1471.96     0  00:00        0.00
  665400               JUNCTION     0.00     0.00  1415.30     0  00:00        0.00
  665600               JUNCTION     0.00     0.00  1405.27     0  00:00        0.00
  666600               JUNCTION     0.00     0.00  1468.34     0  00:00        0.00
  667200               JUNCTION     0.00     0.00  1571.61     0  00:00        0.00
  667400               JUNCTION     0.00     0.00  1588.70     0  00:00        0.00
  667600               JUNCTION     0.00     0.00  1639.94     0  00:00        0.00
  667800               JUNCTION     0.00     0.00  1593.20     0  00:00        0.00
  668000               JUNCTION     0.00     0.00  1686.26     0  00:00        0.00
  668200               JUNCTION     0.00     0.00  1508.69     0  00:00        0.00
  668600               JUNCTION     0.00     0.00  1503.65     0  00:00        0.00
  668800               JUNCTION     0.00     0.00  1436.20     0  00:00        0.00
  670200               JUNCTION     0.43     0.43  1438.19     0  09:54        0.43
  670400               JUNCTION     0.35     0.35  1429.22     0  05:47        0.35
  670600               JUNCTION     0.50     0.51  1449.56     0  05:07        0.51
  683200               JUNCTION     0.45     0.45  1412.45     0  12:33        0.45
  685600               JUNCTION     0.00     0.00  1462.34     0  00:00        0.00
  685800               JUNCTION     0.00     0.00  1433.75     0  00:00        0.00
  686000               JUNCTION     0.00     0.00  1528.49     0  00:00        0.00
  686200               JUNCTION     0.00     0.00  1540.66     0  00:00        0.00
  696600               JUNCTION     0.21     0.21  1462.21     0  10:09        0.21
  696800               JUNCTION     0.19     0.19  1467.13     0  11:07        0.19
  697000               JUNCTION     0.19     0.20  1453.59     0  09:13        0.20
  697200               JUNCTION     0.30     0.30  1454.30     0  06:53        0.30
  18                   OUTFALL      1.55     1.60  1393.13     1  00:00        1.60
  
  
  *******************
  Node Inflow Summary
  *******************
  
  -------------------------------------------------------------------------------------------------
                                  Maximum  Maximum                  Lateral       Total        Flow
                                  Lateral    Total  Time of Max      Inflow      Inflow     Balance
                                   Inflow   Inflow   Occurrence      Volume      Volume       Error
  Node                 Type           CFS      CFS  days hr:min    10^6 gal    10^6 gal     Percent
  -------------------------------------------------------------------------------------------------
  20                   JUNCTION      0.49     0.80     0  04:33       0.314       0.514       2.691
  22                   JUNCTION      0.31     0.31     0  00:00       0.203       0.203       0.928
  24                   JUNCTION      0.21     0.21     0  00:00       0.138       0.138       1.740
  26                   JUNCTION      0.11     0.21     0  16:14      0.0692       0.136       4.558
  28                   JUNCTION      0.11     0.11     0  00:00      0.0692      0.0692       2.752
  30                   JUNCTION      0.00     0.00     0  00:00           0           0       0.000 gal
  32                   JUNCTION      5.11     9.05     1  00:00         3.3         5.7       1.015
  34                   JUNCTION      0.23     2.01     1  00:00       0.149        1.21       1.685
  36                   JUNCTION      0.43     0.43     0  00:00        0.28        0.28       0.787
  38                   JUNCTION      1.03     1.03     0  00:00       0.667       0.667       2.928
  622000               JUNCTION      0.41     0.41     0  00:00       0.262       0.262       2.675
  622200               JUNCTION      0.23     1.73     0  05:55       0.146        1.08       2.482
  622400               JUNCTION      0.32     0.32     0  00:00       0.205       0.205       1.101
  622600               JUNCTION      2.10     2.10     0  00:00        1.36        1.36       1.784
  622800               JUNCTION      1.43     6.07     0  07:08       0.926        3.81       2.341
  623600               JUNCTION      0.28     0.80     0  09:10       0.181       0.512       3.164
  624200               JUNCTION      0.79     9.38     0  08:33       0.509        5.74       2.203
  624400               JUNCTION      0.96     7.97     0  07:58       0.623        4.94       2.100
  624600               JUNCTION      0.34     0.34     0  00:00        0.22        0.22       1.483
  624800               JUNCTION      0.48     0.82     0  07:59       0.312       0.529       2.569
  626200               JUNCTION      1.20     3.82     0  02:27       0.774         2.4       2.030
  626400               JUNCTION      0.74     1.78     0  04:56       0.481        1.13       2.110
  627000               JUNCTION      0.00     1.04     0  12:39           0       0.662       2.184
  627200               JUNCTION      2.13    33.32     1  00:00        1.38        19.9       1.081
  627400               JUNCTION      0.00     0.00     0  00:00           0           0       0.000 gal
  627800               JUNCTION      2.65     3.44     0  12:40        1.71        2.21       2.298
  628000               JUNCTION      1.12    13.97     1  00:00       0.723        8.71       2.646
  628200               JUNCTION      1.70     3.94     1  00:00         1.1        2.44       1.756
  628400               JUNCTION      0.23     0.23     0  00:00       0.151       0.151       1.802
  628600               JUNCTION      0.97     1.78     1  00:00       0.626        1.09       2.846
  628800               JUNCTION      0.05     0.69     1  00:00      0.0343       0.407       3.569
  629000               JUNCTION      0.12     0.12     0  00:00      0.0747      0.0747       2.548
  629200               JUNCTION      0.05     0.28     0  02:10      0.0343        0.17       5.705
  629400               JUNCTION      0.05     0.32     1  00:00      0.0343       0.186       1.320
  630000               JUNCTION      0.05     0.28     0  03:06      0.0343       0.165       8.384
  630200               JUNCTION      0.05     0.37     1  00:00      0.0343       0.218       2.568
  631000               JUNCTION      1.25    24.60     1  00:00       0.808        14.9       2.260
  637400               JUNCTION      0.00     0.00     0  00:00           0           0       0.000 gal
  637600               JUNCTION      0.00     0.00     0  00:00           0           0       0.000 gal
  637800               JUNCTION      0.00     0.00     0  00:00           0           0       0.000 gal
  638000               JUNCTION      0.00     0.00     0  00:00           0           0       0.000 gal
  638200               JUNCTION      0.00     0.00     0  00:00           0           0       0.000 gal
  638400               JUNCTION      0.00     0.00     0  00:00           0           0       0.000 gal
  638600               JUNCTION      0.00     0.00     0  00:00           0           0       0.000 gal
  638800               JUNCTION      0.00     0.00     0  00:00           0           0       0.000 gal
  639000               JUNCTION      0.00     0.00     0  00:00           0           0       0.000 gal
  639400               JUNCTION      0.00     0.00     0  00:00           0           0       0.000 gal
  639600               JUNCTION      0.00     0.00     0  00:00           0           0       0.000 gal
  639800               JUNCTION      0.00     0.00     0  00:00           0           0       0.000 gal
  640000               JUNCTION      0.00     0.00     0  00:00           0           0       0.000 gal
  640200               JUNCTION      0.00     0.00     0  00:00           0           0       0.000 gal
  640400               JUNCTION      0.00     0.00     0  00:00           0           0       0.000 gal
  658400               JUNCTION      0.00    33.32     1  00:00           0        19.7       0.208
  664200               JUNCTION      2.10    30.15     1  00:00        1.36        18.1       1.384
  664400               JUNCTION      0.00     0.00     0  00:00           0           0       0.000 gal
  664800               JUNCTION      0.00     0.00     0  00:00           0           0       0.000 gal
  665000               JUNCTION      0.00     0.00     0  00:00           0           0       0.000 gal
  665400               JUNCTION      0.00     0.00     0  00:00           0           0       0.000 gal
  665600               JUNCTION      0.00     0.00     0  00:00           0           0       0.000 gal
  666600               JUNCTION      0.00     0.00     0  00:00           0           0       0.000 gal
  667200               JUNCTION      0.00     0.00     0  00:00           0           0       0.000 gal
  667400               JUNCTION      0.00     0.00     0  00:00           0           0       0.000 gal
  667600               JUNCTION      0.00     0.00     0  00:00           0           0       0.000 gal
  667800               JUNCTION      0.00     0.00     0  00:00           0           0       0.000 gal
  668000               JUNCTION      0.00     0.00     0  00:00           0           0       0.000 gal
  668200               JUNCTION      0.00     0.00     0  00:00           0           0       0.000 gal
  668600               JUNCTION      0.00     0.00     0  00:00           0           0       0.000 gal
  668800               JUNCTION      0.00     0.00     0  00:00           0           0       0.000 gal
  670200               JUNCTION      0.94     0.94     0  00:00       0.605       0.605       1.776
  670400               JUNCTION      0.63     0.63     0  00:00       0.404       0.404       2.089
  670600               JUNCTION      0.46     0.78     0  10:56       0.297       0.499       4.959
  683200               JUNCTION      0.61     0.61     0  00:00       0.393       0.393       2.331
  685600               JUNCTION      0.00     0.00     0  00:00           0           0       0.000 gal
  685800               JUNCTION      0.00     0.00     0  00:00           0           0       0.000 gal
  686000               JUNCTION      0.00     0.00     0  00:00           0           0       0.000 gal
  686200               JUNCTION      0.00     0.00     0  00:00           0           0       0.000 gal
  696600               JUNCTION      0.16     0.16     0  00:00       0.106       0.106       3.927
  696800               JUNCTION      0.16     0.16     0  00:00       0.103       0.103       2.095
  697000               JUNCTION      0.16     0.16     0  00:00       0.104       0.104       3.334
  697200               JUNCTION      0.36     0.36     0  00:00       0.234       0.234       1.700
  18                   OUTFALL       0.00    33.32     1  00:00           0        19.6       0.000
  
  
  **********************
  Node Surcharge Summary
  **********************
  
  No nodes were surcharged.
  
  
  *********************
  Node Flooding Summary
  *********************
  
  No nodes were flooded.
  
  
  ***********************
  Outfall Loading Summary
  ***********************
  
  -----------------------------------------------------------
                         Flow       Avg       Max       Total
                         Freq      Flow      Flow      Volume
  Outfall Node           Pcnt       CFS       CFS    10^6 gal
  -----------------------------------------------------------
  18                    99.96     31.58     33.32      19.629
  -----------------------------------------------------------
  System                99.96     31.58     33.32      19.629
  
  
  ********************
  Link Flow Summary
  ********************
  
  -----------------------------------------------------------------------------
                                 Maximum  Time of Max   Maximum    Max/    Max/
                                  |Flow|   Occurrence   |Veloc|    Full    Full
  Link                 Type          CFS  days hr:min    ft/sec    Flow   Depth
  -----------------------------------------------------------------------------
  332800               CONDUIT      0.80     0  21:07      1.43    0.42    0.68
  333000               CONDUIT      0.32     0  05:23     14.99    0.13    0.43
  333200               CONDUIT      0.43     0  02:15      1.75    0.27    0.38
  333400               CONDUIT      2.23     0  01:27      2.67    0.48    0.54
  333800               CONDUIT      0.34     0  07:59      8.01    0.17    0.37
  335200               CONDUIT      0.82     0  13:29      3.21    0.42    0.64
  335800               CONDUIT      1.04     0  12:07      1.32    0.37    0.71
  336200               CONDUIT      0.00     0  00:00      0.00    0.00    0.00
  336202               CONDUIT     33.32     1  00:00      3.96    0.45    0.44
  336204               CONDUIT     33.32     1  00:00      5.09    0.45    0.37
  336206               CONDUIT      0.31     0  04:33      8.37    0.18    0.39
  336208               CONDUIT      0.80     0  12:40      1.08    0.32    0.58
  336210               CONDUIT      3.44     0  12:53      2.17    0.47    0.74
  336212               CONDUIT     30.15     1  00:00      3.56    0.54    0.53
  336216               CONDUIT     24.60     1  00:00      3.10    0.51    0.50
  336218               CONDUIT     13.97     1  00:00      2.92    0.49    0.55
  336222               CONDUIT      9.05     1  00:00      2.83    0.43    0.52
  336224               CONDUIT      3.94     1  00:00      1.77    0.30    0.46
  336226               CONDUIT      2.01     1  00:00      1.76    0.37    0.48
  336228               CONDUIT      1.78     1  00:00      2.63    0.32    0.40
  336230               CONDUIT      0.32     1  00:00      3.69    0.08    0.20
  336232               CONDUIT      0.37     1  00:00      1.08    0.10    0.25
  336234               CONDUIT      0.69     1  00:00      1.15    0.18    0.37
  336236               CONDUIT      0.00     0  00:00      0.00    0.00    0.00
  336238               CONDUIT      0.11     0  16:14      8.54    0.07    0.22
  336240               CONDUIT      0.23     0  03:06      5.22    0.15    0.28
  336242               CONDUIT      0.27     1  00:00      1.59    0.17    0.27
  336244               CONDUIT      0.16     0  10:56      7.28    0.08    0.35
  336246               CONDUIT      0.16     0  10:08      1.39    0.09    0.26
  336248               CONDUIT      0.78     0  05:55      2.21    0.45    0.46
  336250               CONDUIT      1.73     0  07:04      1.65    0.35    0.57
  336252               CONDUIT      6.07     0  07:58      2.90    0.49    0.52
  336254               CONDUIT      7.97     0  08:33      3.17    0.49    0.52
  336256               CONDUIT      9.38     0  09:11      2.41    0.58    0.74
  336258               CONDUIT      0.36     0  06:53      9.25    0.20    0.38
  336260               CONDUIT      0.16     0  09:10      1.48    0.08    0.22
  336262               CONDUIT      0.50     0  00:51      6.71    0.31    0.44
  336264               CONDUIT      0.22     0  02:10     11.21    0.11    0.24
  336266               CONDUIT      0.27     0  06:18      1.91    0.13    0.24
  336268               CONDUIT      0.12     0  10:14      1.04    0.05    0.32
  336270               CONDUIT      0.23     0  07:42      1.10    0.10    0.48
  336272               CONDUIT      3.80     0  12:46      2.09    0.35    0.59
  336274               CONDUIT      1.03     0  04:56      2.43    0.33    0.38
  337400               CONDUIT      1.80     0  02:23      2.67    0.35    0.41
  348000               CONDUIT      0.00     0  00:00      0.00    0.00    0.00
  348200               CONDUIT      0.00     0  00:00      0.00    0.00    0.00
  348400               CONDUIT      0.00     0  00:00      0.00    0.00    0.00
  348600               CONDUIT      0.00     0  00:00      0.00    0.00    0.00
  348800               CONDUIT      0.00     0  00:00      0.00    0.00    0.00
  349000               CONDUIT      0.00     0  00:00      0.00    0.00    0.00
  349200               CONDUIT      0.00     0  00:00      0.00    0.00    0.00
  349400               CONDUIT      0.00     0  00:00      0.00    0.00    0.00
  349800               CONDUIT      0.00     0  00:00      0.00    0.00    0.00
  350000               CONDUIT      0.00     0  00:00      0.00    0.00    0.00
  350200               CONDUIT      0.00     0  00:00      0.00    0.00    0.00
  350400               CONDUIT      0.00     0  00:00      0.00    0.00    0.00
  350600               CONDUIT      0.00     0  00:00      0.00    0.00    0.00
  376400               CONDUIT      0.00     0  00:00      0.00    0.00    0.00
  376600               CONDUIT      0.00     0  00:00      0.00    0.00    0.00
  376800               CONDUIT      0.00     0  00:00      0.00    0.00    0.00
  377000               CONDUIT      0.00     0  00:00      0.00    0.00    0.00
  378800               CONDUIT      0.00     0  00:00      0.00    0.00    0.00
  379600               CONDUIT      0.00     0  00:00      0.00    0.00    0.00
  379800               CONDUIT      0.00     0  00:00      0.00    0.00    0.00
  380000               CONDUIT      0.00     0  00:00      0.00    0.00    0.00
  380200               CONDUIT      0.00     0  00:00      0.00    0.00    0.00
  380400               CONDUIT      0.00     0  00:00      0.00    0.00    0.00
  380600               CONDUIT      0.00     0  00:00      0.00    0.00    0.00
  381000               CONDUIT      0.00     0  00:00      0.00    0.00    0.00
  381200               CONDUIT      0.00     0  00:00      0.00    0.00    0.00
  381600               CONDUIT      0.00     0  00:00      0.00    0.00    0.00
  382600               CONDUIT      0.63     0  05:45      2.50    0.26    0.67
  382800               CONDUIT      0.94     0  05:24      2.86    0.38    0.71
  395000               CONDUIT      0.61     0  12:39      2.17    0.34    0.39
  397000               CONDUIT      0.00     0  00:00      0.00    0.00    0.00
  402200               CONDUIT      0.00     0  00:00      0.00    0.00    0.00
  402400               CONDUIT      0.00     0  00:00      0.00    0.00    0.00
  402600               CONDUIT      0.00     0  00:00      0.00    0.00    0.00
  402800               CONDUIT      0.00     0  00:00      0.00    0.00    0.00
  403000               CONDUIT      0.00     0  00:00      0.00    0.00    0.00
  
  
  ***************************
  Flow Classification Summary
  ***************************
  
  -------------------------------------------------------------------------------------
                      Adjusted    ---------- Fraction of Time in Flow Class ---------- 
                       /Actual         Up    Down  Sub   Sup   Up    Down  Norm  Inlet 
  Conduit               Length    Dry  Dry   Dry   Crit  Crit  Crit  Crit  Ltd   Ctrl  
  -------------------------------------------------------------------------------------
  332800                  1.00   0.00  0.00  0.00  1.00  0.00  0.00  0.00  0.99  0.00
  333000                  1.00   0.00  0.00  0.00  1.00  0.00  0.00  0.00  0.98  0.00
  333200                  1.00   0.00  0.00  0.00  0.98  0.00  0.00  0.02  0.91  0.00
  333400                  1.00   0.00  0.00  0.00  0.99  0.00  0.00  0.01  0.94  0.00
  333800                  1.00   0.00  0.00  0.00  1.00  0.00  0.00  0.00  0.98  0.00
  335200                  1.00   0.00  0.00  0.00  1.00  0.00  0.00  0.00  1.00  0.00
  335800                  1.00   0.00  0.00  0.00  1.00  0.00  0.00  0.00  1.00  0.00
  336200                  1.00   1.00  0.00  0.00  0.00  0.00  0.00  0.00  0.00  0.00
  336202                  1.00   0.00  0.00  0.00  1.00  0.00  0.00  0.00  0.00  0.00
  336204                  1.00   0.00  0.00  0.00  1.00  0.00  0.00  0.00  0.00  0.00
  336206                  1.00   0.00  0.00  0.00  1.00  0.00  0.00  0.00  0.98  0.00
  336208                  1.00   0.00  0.00  0.00  1.00  0.00  0.00  0.00  1.00  0.00
  336210                  1.00   0.00  0.00  0.00  1.00  0.00  0.00  0.00  0.96  0.00
  336212                  1.00   0.00  0.00  0.00  1.00  0.00  0.00  0.00  0.94  0.00
  336216                  1.00   0.00  0.00  0.00  1.00  0.00  0.00  0.00  0.00  0.00
  336218                  1.00   0.00  0.00  0.00  0.98  0.00  0.00  0.02  0.92  0.00
  336222                  1.00   0.00  0.00  0.00  1.00  0.00  0.00  0.00  0.95  0.00
  336224                  1.00   0.00  0.00  0.00  1.00  0.00  0.00  0.00  1.00  0.00
  336226                  1.00   0.00  0.00  0.00  1.00  0.00  0.00  0.00  1.00  0.00
  336228                  1.00   0.00  0.00  0.00  1.00  0.00  0.00  0.00  0.94  0.00
  336230                  1.00   0.00  0.00  0.00  1.00  0.00  0.00  0.00  0.97  0.00
  336232                  1.00   0.00  0.00  0.00  1.00  0.00  0.00  0.00  0.94  0.00
  336234                  1.00   0.00  0.00  0.00  1.00  0.00  0.00  0.00  1.00  0.00
  336236                  1.00   1.00  0.00  0.00  0.00  0.00  0.00  0.00  0.00  0.00
  336238                  1.00   0.00  0.00  0.00  1.00  0.00  0.00  0.00  0.96  0.00
  336240                  1.00   0.00  0.00  0.00  1.00  0.00  0.00  0.00  0.87  0.00
  336242                  1.00   0.00  0.00  0.00  0.00  0.00  0.00  1.00  0.00  0.00
  336244                  1.00   0.00  0.00  0.00  1.00  0.00  0.00  0.00  1.00  0.00
  336246                  1.00   0.00  0.00  0.00  0.98  0.00  0.00  0.02  0.93  0.00
  336248                  1.00   0.00  0.00  0.00  0.98  0.00  0.00  0.02  0.00  0.00
  336250                  1.00   0.00  0.00  0.00  1.00  0.00  0.00  0.00  1.00  0.00
  336252                  1.00   0.00  0.00  0.00  1.00  0.00  0.00  0.00  0.95  0.00
  336254                  1.00   0.00  0.00  0.00  1.00  0.00  0.00  0.00  0.92  0.00
  336256                  1.00   0.00  0.00  0.00  1.00  0.00  0.00  0.00  1.00  0.00
  336258                  1.00   0.00  0.00  0.00  1.00  0.00  0.00  0.00  0.96  0.00
  336260                  1.00   0.00  0.00  0.00  0.99  0.00  0.00  0.01  0.94  0.00
  336262                  1.00   0.00  0.00  0.00  1.00  0.00  0.00  0.00  0.96  0.00
  336264                  1.00   0.00  0.00  0.00  0.99  0.01  0.00  0.00  0.91  0.00
  336266                  1.00   0.00  0.00  0.00  0.84  0.00  0.00  0.16  0.00  0.00
  336268                  1.00   0.00  0.00  0.00  1.00  0.00  0.00  0.00  0.99  0.00
  336270                  1.00   0.00  0.00  0.00  1.00  0.00  0.00  0.00  0.99  0.00
  336272                  1.00   0.00  0.00  0.00  1.00  0.00  0.00  0.00  0.98  0.00
  336274                  1.00   0.00  0.00  0.00  0.98  0.00  0.00  0.02  0.00  0.00
  337400                  1.00   0.00  0.00  0.00  0.99  0.00  0.00  0.01  0.90  0.00
  348000                  1.00   1.00  0.00  0.00  0.00  0.00  0.00  0.00  0.00  0.00
  348200                  1.00   1.00  0.00  0.00  0.00  0.00  0.00  0.00  0.00  0.00
  348400                  1.00   1.00  0.00  0.00  0.00  0.00  0.00  0.00  0.00  0.00
  348600                  1.00   1.00  0.00  0.00  0.00  0.00  0.00  0.00  0.00  0.00
  348800                  1.00   1.00  0.00  0.00  0.00  0.00  0.00  0.00  0.00  0.00
  349000                  1.00   1.00  0.00  0.00  0.00  0.00  0.00  0.00  0.00  0.00
  349200                  1.00   1.00  0.00  0.00  0.00  0.00  0.00  0.00  0.00  0.00
  349400                  1.00   1.00  0.00  0.00  0.00  0.00  0.00  0.00  0.00  0.00
  349800                  1.00   1.00  0.00  0.00  0.00  0.00  0.00  0.00  0.00  0.00
  350000                  1.00   1.00  0.00  0.00  0.00  0.00  0.00  0.00  0.00  0.00
  350200                  1.00   1.00  0.00  0.00  0.00  0.00  0.00  0.00  0.00  0.00
  350400                  1.00   1.00  0.00  0.00  0.00  0.00  0.00  0.00  0.00  0.00
  350600                  1.00   1.00  0.00  0.00  0.00  0.00  0.00  0.00  0.00  0.00
  376400                  1.00   1.00  0.00  0.00  0.00  0.00  0.00  0.00  0.00  0.00
  376600                  1.00   1.00  0.00  0.00  0.00  0.00  0.00  0.00  0.00  0.00
  376800                  1.00   1.00  0.00  0.00  0.00  0.00  0.00  0.00  0.00  0.00
  377000                  1.00   1.00  0.00  0.00  0.00  0.00  0.00  0.00  0.00  0.00
  378800                  1.00   1.00  0.00  0.00  0.00  0.00  0.00  0.00  0.00  0.00
  379600                  1.00   1.00  0.00  0.00  0.00  0.00  0.00  0.00  0.00  0.00
  379800                  1.00   1.00  0.00  0.00  0.00  0.00  0.00  0.00  0.00  0.00
  380000                  1.00   1.00  0.00  0.00  0.00  0.00  0.00  0.00  0.00  0.00
  380200                  1.00   1.00  0.00  0.00  0.00  0.00  0.00  0.00  0.00  0.00
  380400                  1.00   1.00  0.00  0.00  0.00  0.00  0.00  0.00  0.00  0.00
  380600                  1.00   1.00  0.00  0.00  0.00  0.00  0.00  0.00  0.00  0.00
  381000                  1.00   1.00  0.00  0.00  0.00  0.00  0.00  0.00  0.00  0.00
  381200                  1.00   1.00  0.00  0.00  0.00  0.00  0.00  0.00  0.00  0.00
  381600                  1.00   1.00  0.00  0.00  0.00  0.00  0.00  0.00  0.00  0.00
  382600                  1.00   0.00  0.00  0.00  0.99  0.00  0.00  0.01  0.96  0.00
  382800                  1.00   0.00  0.00  0.00  0.99  0.00  0.00  0.01  0.97  0.00
  395000                  1.00   0.00  0.00  0.00  0.00  0.00  0.00  1.00  0.00  0.00
  397000                  1.00   1.00  0.00  0.00  0.00  0.00  0.00  0.00  0.00  0.00
  402200                  1.00   1.00  0.00  0.00  0.00  0.00  0.00  0.00  0.00  0.00
  402400                  1.00   1.00  0.00  0.00  0.00  0.00  0.00  0.00  0.00  0.00
  402600                  1.00   1.00  0.00  0.00  0.00  0.00  0.00  0.00  0.00  0.00
  402800                  1.00   1.00  0.00  0.00  0.00  0.00  0.00  0.00  0.00  0.00
  403000                  1.00   1.00  0.00  0.00  0.00  0.00  0.00  0.00  0.00  0.00
  
  
  *************************
  Conduit Surcharge Summary
  *************************
  
  ----------------------------------------------------------------------------
                                                           Hours        Hours 
                         --------- Hours Full --------   Above Full   Capacity
  Conduit                Both Ends  Upstream  Dnstream   Normal Flow   Limited
  ----------------------------------------------------------------------------
  335800                      0.01      0.01     22.20      0.01         0.01
  336210                      0.01      0.01     21.57      0.01         0.01
  382600                      0.01      0.01     21.65      0.01         0.01
  382800                      0.01      0.01     20.67      0.01         0.01
  

  Analysis begun on:  Fri Nov 29 08:59:55 2019
  Analysis ended on:  Fri Nov 29 08:59:55 2019
  Total elapsed time: < 1 sec