
  EPA STORM WATER MANAGEMENT MODEL - VERSION 5.1 (Build 5.1.013)
  --------------------------------------------------------------

  
  *********************************************************
  NOTE: The summary statistics displayed in this report are
  based on results found at every computational time step,  
  not just on results from each reporting time step.
  *********************************************************
  
  ****************
  Analysis Options
  ****************
  Flow Units ............... CFS
  Process Models:
    Rainfall/Runoff ........ NO
    RDII ................... NO
    Snowmelt ............... NO
    Groundwater ............ NO
    Flow Routing ........... YES
    Ponding Allowed ........ NO
    Water Quality .......... NO
  Flow Routing Method ...... DYNWAVE
  Surcharge Method ......... EXTRAN
  Starting Date ............ 01/01/2002 00:00:00
  Ending Date .............. 01/01/2002 00:00:00
  Antecedent Dry Days ...... 5.0
  Report Time Step ......... 00:05:00
  Routing Time Step ........ 300.00 sec
  Variable Time Step ....... YES
  Maximum Trials ........... 8
  Number of Threads ........ 8
  Head Tolerance ........... 0.005000 ft
  
  
  **************************        Volume        Volume
  Flow Routing Continuity        acre-feet      10^6 gal
  **************************     ---------     ---------
  Dry Weather Inflow .......         0.000         0.000
  Wet Weather Inflow .......         0.000         0.000
  Groundwater Inflow .......         0.000         0.000
  RDII Inflow ..............         0.000         0.000
  External Inflow ..........         0.000         0.000
  External Outflow .........         0.000         0.000
  Flooding Loss ............         0.000         0.000
  Evaporation Loss .........         0.000         0.000
  Exfiltration Loss ........         0.000         0.000
  Initial Stored Volume ....         0.000         0.000
  Final Stored Volume ......         0.000         0.000
  Continuity Error (%) .....         0.000
  
  
  ***************************
  Time-Step Critical Elements
  ***************************
  None
  
  
  ********************************
  Highest Flow Instability Indexes
  ********************************
  All links are stable.
  
  
  ******************
  Node Depth Summary
  ******************
  
  ---------------------------------------------------------------------------------
                                 Average  Maximum  Maximum  Time of Max    Reported
                                   Depth    Depth      HGL   Occurrence   Max Depth
  Node                 Type         Feet     Feet     Feet  days hr:min        Feet
  ---------------------------------------------------------------------------------
  20                   JUNCTION  -nan(ind)     0.00  1409.40     0  00:00        0.00
  22                   JUNCTION  -nan(ind)     0.00  1415.91     0  00:00        0.00
  24                   JUNCTION  -nan(ind)     0.00  1458.00     0  00:00        0.00
  26                   JUNCTION  -nan(ind)     0.00  1450.67     0  00:00        0.00
  28                   JUNCTION  -nan(ind)     0.00  1461.33     0  00:00        0.00
  30                   JUNCTION  -nan(ind)     0.00  1472.15     0  00:00        0.00
  32                   JUNCTION  -nan(ind)     0.00  1406.38     0  00:00        0.00
  34                   JUNCTION  -nan(ind)     0.00  1412.24     0  00:00        0.00
  36                   JUNCTION  -nan(ind)     0.00  1408.03     0  00:00        0.00
  38                   JUNCTION  -nan(ind)     0.00  1442.11     0  00:00        0.00
  622000               JUNCTION  -nan(ind)     0.00  1444.00     0  00:00        0.00
  622200               JUNCTION  -nan(ind)     0.00  1436.38     0  00:00        0.00
  622400               JUNCTION  -nan(ind)     0.00  1456.02     0  00:00        0.00
  622600               JUNCTION  -nan(ind)     0.00  1432.08     0  00:00        0.00
  622800               JUNCTION  -nan(ind)     0.00  1424.38     0  00:00        0.00
  623600               JUNCTION  -nan(ind)     0.00  1439.65     0  00:00        0.00
  624200               JUNCTION  -nan(ind)     0.00  1407.42     0  00:00        0.00
  624400               JUNCTION  -nan(ind)     0.00  1415.96     0  00:00        0.00
  624600               JUNCTION  -nan(ind)     0.00  1445.84     0  00:00        0.00
  624800               JUNCTION  -nan(ind)     0.00  1432.12     0  00:00        0.00
  626200               JUNCTION  -nan(ind)     0.00  1416.10     0  00:00        0.00
  626400               JUNCTION  -nan(ind)     0.00  1429.02     0  00:00        0.00
  627000               JUNCTION  -nan(ind)     0.00  1403.14     0  00:00        0.00
  627200               JUNCTION  -nan(ind)     0.00  1392.65     0  00:00        0.00
  627400               JUNCTION  -nan(ind)     0.00  1400.43     0  00:00        0.00
  627800               JUNCTION  -nan(ind)     0.00  1401.48     0  00:00        0.00
  628000               JUNCTION  -nan(ind)     0.00  1403.72     0  00:00        0.00
  628200               JUNCTION  -nan(ind)     0.00  1409.04     0  00:00        0.00
  628400               JUNCTION  -nan(ind)     0.00  1428.00     0  00:00        0.00
  628600               JUNCTION  -nan(ind)     0.00  1415.44     0  00:00        0.00
  628800               JUNCTION  -nan(ind)     0.00  1422.34     0  00:00        0.00
  629000               JUNCTION  -nan(ind)     0.00  1440.00     0  00:00        0.00
  629200               JUNCTION  -nan(ind)     0.00  1440.41     0  00:00        0.00
  629400               JUNCTION  -nan(ind)     0.00  1429.24     0  00:00        0.00
  630000               JUNCTION  -nan(ind)     0.00  1440.03     0  00:00        0.00
  630200               JUNCTION  -nan(ind)     0.00  1425.81     0  00:00        0.00
  631000               JUNCTION  -nan(ind)     0.00  1399.37     0  00:00        0.00
  637400               JUNCTION  -nan(ind)     0.00  1562.34     0  00:00        0.00
  637600               JUNCTION  -nan(ind)     0.00  1539.28     0  00:00        0.00
  637800               JUNCTION  -nan(ind)     0.00  1594.95     0  00:00        0.00
  638000               JUNCTION  -nan(ind)     0.00  1547.38     0  00:00        0.00
  638200               JUNCTION  -nan(ind)     0.00  1496.29     0  00:00        0.00
  638400               JUNCTION  -nan(ind)     0.00  1572.87     0  00:00        0.00
  638600               JUNCTION  -nan(ind)     0.00  1643.60     0  00:00        0.00
  638800               JUNCTION  -nan(ind)     0.00  1511.04     0  00:00        0.00
  639000               JUNCTION  -nan(ind)     0.00  1447.86     0  00:00        0.00
  639400               JUNCTION  -nan(ind)     0.00  1515.28     0  00:00        0.00
  639600               JUNCTION  -nan(ind)     0.00  1473.24     0  00:00        0.00
  639800               JUNCTION  -nan(ind)     0.00  1426.81     0  00:00        0.00
  640000               JUNCTION  -nan(ind)     0.00  1433.15     0  00:00        0.00
  640200               JUNCTION  -nan(ind)     0.00  1428.52     0  00:00        0.00
  640400               JUNCTION  -nan(ind)     0.00  1458.34     0  00:00        0.00
  658400               JUNCTION  -nan(ind)     0.00  1391.72     0  00:00        0.00
  664200               JUNCTION  -nan(ind)     0.00  1396.00     0  00:00        0.00
  664400               JUNCTION  -nan(ind)     0.00  1403.57     0  00:00        0.00
  664800               JUNCTION  -nan(ind)     0.00  1519.20     0  00:00        0.00
  665000               JUNCTION  -nan(ind)     0.00  1471.96     0  00:00        0.00
  665400               JUNCTION  -nan(ind)     0.00  1415.30     0  00:00        0.00
  665600               JUNCTION  -nan(ind)     0.00  1405.27     0  00:00        0.00
  666600               JUNCTION  -nan(ind)     0.00  1468.34     0  00:00        0.00
  667200               JUNCTION  -nan(ind)     0.00  1571.61     0  00:00        0.00
  667400               JUNCTION  -nan(ind)     0.00  1588.70     0  00:00        0.00
  667600               JUNCTION  -nan(ind)     0.00  1639.94     0  00:00        0.00
  667800               JUNCTION  -nan(ind)     0.00  1593.20     0  00:00        0.00
  668000               JUNCTION  -nan(ind)     0.00  1686.26     0  00:00        0.00
  668200               JUNCTION  -nan(ind)     0.00  1508.69     0  00:00        0.00
  668600               JUNCTION  -nan(ind)     0.00  1503.65     0  00:00        0.00
  668800               JUNCTION  -nan(ind)     0.00  1436.20     0  00:00        0.00
  670200               JUNCTION  -nan(ind)     0.00  1437.76     0  00:00        0.00
  670400               JUNCTION  -nan(ind)     0.00  1428.87     0  00:00        0.00
  670600               JUNCTION  -nan(ind)     0.00  1449.05     0  00:00        0.00
  683200               JUNCTION  -nan(ind)     0.00  1412.00     0  00:00        0.00
  685600               JUNCTION  -nan(ind)     0.00  1462.34     0  00:00        0.00
  685800               JUNCTION  -nan(ind)     0.00  1433.75     0  00:00        0.00
  686000               JUNCTION  -nan(ind)     0.00  1528.49     0  00:00        0.00
  686200               JUNCTION  -nan(ind)     0.00  1540.66     0  00:00        0.00
  696600               JUNCTION  -nan(ind)     0.00  1462.00     0  00:00        0.00
  696800               JUNCTION  -nan(ind)     0.00  1466.94     0  00:00        0.00
  697000               JUNCTION  -nan(ind)     0.00  1453.39     0  00:00        0.00
  697200               JUNCTION  -nan(ind)     0.00  1454.00     0  00:00        0.00
  18                   OUTFALL   -nan(ind)     0.00  1391.53     0  00:00        0.00
  
  
  *******************
  Node Inflow Summary
  *******************
  
  -------------------------------------------------------------------------------------------------
                                  Maximum  Maximum                  Lateral       Total        Flow
                                  Lateral    Total  Time of Max      Inflow      Inflow     Balance
                                   Inflow   Inflow   Occurrence      Volume      Volume       Error
  Node                 Type           CFS      CFS  days hr:min    10^6 gal    10^6 gal     Percent
  -------------------------------------------------------------------------------------------------
  20                   JUNCTION      0.00     0.00     0  00:00           0           0       0.000 gal
  22                   JUNCTION      0.00     0.00     0  00:00           0           0       0.000 gal
  24                   JUNCTION      0.00     0.00     0  00:00           0           0       0.000 gal
  26                   JUNCTION      0.00     0.00     0  00:00           0           0       0.000 gal
  28                   JUNCTION      0.00     0.00     0  00:00           0           0       0.000 gal
  30                   JUNCTION      0.00     0.00     0  00:00           0           0       0.000 gal
  32                   JUNCTION      0.00     0.00     0  00:00           0           0       0.000 gal
  34                   JUNCTION      0.00     0.00     0  00:00           0           0       0.000 gal
  36                   JUNCTION      0.00     0.00     0  00:00           0           0       0.000 gal
  38                   JUNCTION      0.00     0.00     0  00:00           0           0       0.000 gal
  622000               JUNCTION      0.00     0.00     0  00:00           0           0       0.000 gal
  622200               JUNCTION      0.00     0.00     0  00:00           0           0       0.000 gal
  622400               JUNCTION      0.00     0.00     0  00:00           0           0       0.000 gal
  622600               JUNCTION      0.00     0.00     0  00:00           0           0       0.000 gal
  622800               JUNCTION      0.00     0.00     0  00:00           0           0       0.000 gal
  623600               JUNCTION      0.00     0.00     0  00:00           0           0       0.000 gal
  624200               JUNCTION      0.00     0.00     0  00:00           0           0       0.000 gal
  624400               JUNCTION      0.00     0.00     0  00:00           0           0       0.000 gal
  624600               JUNCTION      0.00     0.00     0  00:00           0           0       0.000 gal
  624800               JUNCTION      0.00     0.00     0  00:00           0           0       0.000 gal
  626200               JUNCTION      0.00     0.00     0  00:00           0           0       0.000 gal
  626400               JUNCTION      0.00     0.00     0  00:00           0           0       0.000 gal
  627000               JUNCTION      0.00     0.00     0  00:00           0           0       0.000 gal
  627200               JUNCTION      0.00     0.00     0  00:00           0           0       0.000 gal
  627400               JUNCTION      0.00     0.00     0  00:00           0           0       0.000 gal
  627800               JUNCTION      0.00     0.00     0  00:00           0           0       0.000 gal
  628000               JUNCTION      0.00     0.00     0  00:00           0           0       0.000 gal
  628200               JUNCTION      0.00     0.00     0  00:00           0           0       0.000 gal
  628400               JUNCTION      0.00     0.00     0  00:00           0           0       0.000 gal
  628600               JUNCTION      0.00     0.00     0  00:00           0           0       0.000 gal
  628800               JUNCTION      0.00     0.00     0  00:00           0           0       0.000 gal
  629000               JUNCTION      0.00     0.00     0  00:00           0           0       0.000 gal
  629200               JUNCTION      0.00     0.00     0  00:00           0           0       0.000 gal
  629400               JUNCTION      0.00     0.00     0  00:00           0           0       0.000 gal
  630000               JUNCTION      0.00     0.00     0  00:00           0           0       0.000 gal
  630200               JUNCTION      0.00     0.00     0  00:00           0           0       0.000 gal
  631000               JUNCTION      0.00     0.00     0  00:00           0           0       0.000 gal
  637400               JUNCTION      0.00     0.00     0  00:00           0           0       0.000 gal
  637600               JUNCTION      0.00     0.00     0  00:00           0           0       0.000 gal
  637800               JUNCTION      0.00     0.00     0  00:00           0           0       0.000 gal
  638000               JUNCTION      0.00     0.00     0  00:00           0           0       0.000 gal
  638200               JUNCTION      0.00     0.00     0  00:00           0           0       0.000 gal
  638400               JUNCTION      0.00     0.00     0  00:00           0           0       0.000 gal
  638600               JUNCTION      0.00     0.00     0  00:00           0           0       0.000 gal
  638800               JUNCTION      0.00     0.00     0  00:00           0           0       0.000 gal
  639000               JUNCTION      0.00     0.00     0  00:00           0           0       0.000 gal
  639400               JUNCTION      0.00     0.00     0  00:00           0           0       0.000 gal
  639600               JUNCTION      0.00     0.00     0  00:00           0           0       0.000 gal
  639800               JUNCTION      0.00     0.00     0  00:00           0           0       0.000 gal
  640000               JUNCTION      0.00     0.00     0  00:00           0           0       0.000 gal
  640200               JUNCTION      0.00     0.00     0  00:00           0           0       0.000 gal
  640400               JUNCTION      0.00     0.00     0  00:00           0           0       0.000 gal
  658400               JUNCTION      0.00     0.00     0  00:00           0           0       0.000 gal
  664200               JUNCTION      0.00     0.00     0  00:00           0           0       0.000 gal
  664400               JUNCTION      0.00     0.00     0  00:00           0           0       0.000 gal
  664800               JUNCTION      0.00     0.00     0  00:00           0           0       0.000 gal
  665000               JUNCTION      0.00     0.00     0  00:00           0           0       0.000 gal
  665400               JUNCTION      0.00     0.00     0  00:00           0           0       0.000 gal
  665600               JUNCTION      0.00     0.00     0  00:00           0           0       0.000 gal
  666600               JUNCTION      0.00     0.00     0  00:00           0           0       0.000 gal
  667200               JUNCTION      0.00     0.00     0  00:00           0           0       0.000 gal
  667400               JUNCTION      0.00     0.00     0  00:00           0           0       0.000 gal
  667600               JUNCTION      0.00     0.00     0  00:00           0           0       0.000 gal
  667800               JUNCTION      0.00     0.00     0  00:00           0           0       0.000 gal
  668000               JUNCTION      0.00     0.00     0  00:00           0           0       0.000 gal
  668200               JUNCTION      0.00     0.00     0  00:00           0           0       0.000 gal
  668600               JUNCTION      0.00     0.00     0  00:00           0           0       0.000 gal
  668800               JUNCTION      0.00     0.00     0  00:00           0           0       0.000 gal
  670200               JUNCTION      0.00     0.00     0  00:00           0           0       0.000 gal
  670400               JUNCTION      0.00     0.00     0  00:00           0           0       0.000 gal
  670600               JUNCTION      0.00     0.00     0  00:00           0           0       0.000 gal
  683200               JUNCTION      0.00     0.00     0  00:00           0           0       0.000 gal
  685600               JUNCTION      0.00     0.00     0  00:00           0           0       0.000 gal
  685800               JUNCTION      0.00     0.00     0  00:00           0           0       0.000 gal
  686000               JUNCTION      0.00     0.00     0  00:00           0           0       0.000 gal
  686200               JUNCTION      0.00     0.00     0  00:00           0           0       0.000 gal
  696600               JUNCTION      0.00     0.00     0  00:00           0           0       0.000 gal
  696800               JUNCTION      0.00     0.00     0  00:00           0           0       0.000 gal
  697000               JUNCTION      0.00     0.00     0  00:00           0           0       0.000 gal
  697200               JUNCTION      0.00     0.00     0  00:00           0           0       0.000 gal
  18                   OUTFALL       0.00     0.00     0  00:00           0           0       0.000 gal
  
  
  **********************
  Node Surcharge Summary
  **********************
  
  No nodes were surcharged.
  
  
  *********************
  Node Flooding Summary
  *********************
  
  No nodes were flooded.
  
  
  ***********************
  Outfall Loading Summary
  ***********************
  
  -----------------------------------------------------------
                         Flow       Avg       Max       Total
                         Freq      Flow      Flow      Volume
  Outfall Node           Pcnt       CFS       CFS    10^6 gal
  -----------------------------------------------------------
  18                  -nan(ind)      0.00      0.00       0.000
  -----------------------------------------------------------
  System              -nan(ind)      0.00      0.00       0.000
  
  
  ********************
  Link Flow Summary
  ********************
  
  -----------------------------------------------------------------------------
                                 Maximum  Time of Max   Maximum    Max/    Max/
                                  |Flow|   Occurrence   |Veloc|    Full    Full
  Link                 Type          CFS  days hr:min    ft/sec    Flow   Depth
  -----------------------------------------------------------------------------
  332800               CONDUIT      0.00     0  00:00      0.00    0.00    0.00
  333000               CONDUIT      0.00     0  00:00      0.00    0.00    0.00
  333200               CONDUIT      0.00     0  00:00      0.00    0.00    0.00
  333400               CONDUIT      0.00     0  00:00      0.00    0.00    0.00
  333800               CONDUIT      0.00     0  00:00      0.00    0.00    0.00
  335200               CONDUIT      0.00     0  00:00      0.00    0.00    0.00
  335800               CONDUIT      0.00     0  00:00      0.00    0.00    0.00
  336200               CONDUIT      0.00     0  00:00      0.00    0.00    0.00
  336202               CONDUIT      0.00     0  00:00      0.00    0.00    0.00
  336204               CONDUIT      0.00     0  00:00      0.00    0.00    0.00
  336206               CONDUIT      0.00     0  00:00      0.00    0.00    0.00
  336208               CONDUIT      0.00     0  00:00      0.00    0.00    0.00
  336210               CONDUIT      0.00     0  00:00      0.00    0.00    0.00
  336212               CONDUIT      0.00     0  00:00      0.00    0.00    0.00
  336216               CONDUIT      0.00     0  00:00      0.00    0.00    0.00
  336218               CONDUIT      0.00     0  00:00      0.00    0.00    0.00
  336222               CONDUIT      0.00     0  00:00      0.00    0.00    0.00
  336224               CONDUIT      0.00     0  00:00      0.00    0.00    0.00
  336226               CONDUIT      0.00     0  00:00      0.00    0.00    0.00
  336228               CONDUIT      0.00     0  00:00      0.00    0.00    0.00
  336230               CONDUIT      0.00     0  00:00      0.00    0.00    0.00
  336232               CONDUIT      0.00     0  00:00      0.00    0.00    0.00
  336234               CONDUIT      0.00     0  00:00      0.00    0.00    0.00
  336236               CONDUIT      0.00     0  00:00      0.00    0.00    0.00
  336238               CONDUIT      0.00     0  00:00      0.00    0.00    0.00
  336240               CONDUIT      0.00     0  00:00      0.00    0.00    0.00
  336242               CONDUIT      0.00     0  00:00      0.00    0.00    0.00
  336244               CONDUIT      0.00     0  00:00      0.00    0.00    0.00
  336246               CONDUIT      0.00     0  00:00      0.00    0.00    0.00
  336248               CONDUIT      0.00     0  00:00      0.00    0.00    0.00
  336250               CONDUIT      0.00     0  00:00      0.00    0.00    0.00
  336252               CONDUIT      0.00     0  00:00      0.00    0.00    0.00
  336254               CONDUIT      0.00     0  00:00      0.00    0.00    0.00
  336256               CONDUIT      0.00     0  00:00      0.00    0.00    0.00
  336258               CONDUIT      0.00     0  00:00      0.00    0.00    0.00
  336260               CONDUIT      0.00     0  00:00      0.00    0.00    0.00
  336262               CONDUIT      0.00     0  00:00      0.00    0.00    0.00
  336264               CONDUIT      0.00     0  00:00      0.00    0.00    0.00
  336266               CONDUIT      0.00     0  00:00      0.00    0.00    0.00
  336268               CONDUIT      0.00     0  00:00      0.00    0.00    0.00
  336270               CONDUIT      0.00     0  00:00      0.00    0.00    0.00
  336272               CONDUIT      0.00     0  00:00      0.00    0.00    0.00
  336274               CONDUIT      0.00     0  00:00      0.00    0.00    0.00
  337400               CONDUIT      0.00     0  00:00      0.00    0.00    0.00
  348000               CONDUIT      0.00     0  00:00      0.00    0.00    0.00
  348200               CONDUIT      0.00     0  00:00      0.00    0.00    0.00
  348400               CONDUIT      0.00     0  00:00      0.00    0.00    0.00
  348600               CONDUIT      0.00     0  00:00      0.00    0.00    0.00
  348800               CONDUIT      0.00     0  00:00      0.00    0.00    0.00
  349000               CONDUIT      0.00     0  00:00      0.00    0.00    0.00
  349200               CONDUIT      0.00     0  00:00      0.00    0.00    0.00
  349400               CONDUIT      0.00     0  00:00      0.00    0.00    0.00
  349800               CONDUIT      0.00     0  00:00      0.00    0.00    0.00
  350000               CONDUIT      0.00     0  00:00      0.00    0.00    0.00
  350200               CONDUIT      0.00     0  00:00      0.00    0.00    0.00
  350400               CONDUIT      0.00     0  00:00      0.00    0.00    0.00
  350600               CONDUIT      0.00     0  00:00      0.00    0.00    0.00
  376400               CONDUIT      0.00     0  00:00      0.00    0.00    0.00
  376600               CONDUIT      0.00     0  00:00      0.00    0.00    0.00
  376800               CONDUIT      0.00     0  00:00      0.00    0.00    0.00
  377000               CONDUIT      0.00     0  00:00      0.00    0.00    0.00
  378800               CONDUIT      0.00     0  00:00      0.00    0.00    0.00
  379600               CONDUIT      0.00     0  00:00      0.00    0.00    0.00
  379800               CONDUIT      0.00     0  00:00      0.00    0.00    0.00
  380000               CONDUIT      0.00     0  00:00      0.00    0.00    0.00
  380200               CONDUIT      0.00     0  00:00      0.00    0.00    0.00
  380400               CONDUIT      0.00     0  00:00      0.00    0.00    0.00
  380600               CONDUIT      0.00     0  00:00      0.00    0.00    0.00
  381000               CONDUIT      0.00     0  00:00      0.00    0.00    0.00
  381200               CONDUIT      0.00     0  00:00      0.00    0.00    0.00
  381600               CONDUIT      0.00     0  00:00      0.00    0.00    0.00
  382600               CONDUIT      0.00     0  00:00      0.00    0.00    0.00
  382800               CONDUIT      0.00     0  00:00      0.00    0.00    0.00
  395000               CONDUIT      0.00     0  00:00      0.00    0.00    0.00
  397000               CONDUIT      0.00     0  00:00      0.00    0.00    0.00
  402200               CONDUIT      0.00     0  00:00      0.00    0.00    0.00
  402400               CONDUIT      0.00     0  00:00      0.00    0.00    0.00
  402600               CONDUIT      0.00     0  00:00      0.00    0.00    0.00
  402800               CONDUIT      0.00     0  00:00      0.00    0.00    0.00
  403000               CONDUIT      0.00     0  00:00      0.00    0.00    0.00
  
  
  ***************************
  Flow Classification Summary
  ***************************
  
  -------------------------------------------------------------------------------------
                      Adjusted    ---------- Fraction of Time in Flow Class ---------- 
                       /Actual         Up    Down  Sub   Sup   Up    Down  Norm  Inlet 
  Conduit               Length    Dry  Dry   Dry   Crit  Crit  Crit  Crit  Ltd   Ctrl  
  -------------------------------------------------------------------------------------
  332800                  1.00   -nan(ind)  -nan(ind)  -nan(ind)  -nan(ind)  -nan(ind)  -nan(ind)  -nan(ind)  -nan(ind)  -nan(ind)
  333000                  1.00   -nan(ind)  -nan(ind)  -nan(ind)  -nan(ind)  -nan(ind)  -nan(ind)  -nan(ind)  -nan(ind)  -nan(ind)
  333200                  1.00   -nan(ind)  -nan(ind)  -nan(ind)  -nan(ind)  -nan(ind)  -nan(ind)  -nan(ind)  -nan(ind)  -nan(ind)
  333400                  1.00   -nan(ind)  -nan(ind)  -nan(ind)  -nan(ind)  -nan(ind)  -nan(ind)  -nan(ind)  -nan(ind)  -nan(ind)
  333800                  1.00   -nan(ind)  -nan(ind)  -nan(ind)  -nan(ind)  -nan(ind)  -nan(ind)  -nan(ind)  -nan(ind)  -nan(ind)
  335200                  1.00   -nan(ind)  -nan(ind)  -nan(ind)  -nan(ind)  -nan(ind)  -nan(ind)  -nan(ind)  -nan(ind)  -nan(ind)
  335800                  1.00   -nan(ind)  -nan(ind)  -nan(ind)  -nan(ind)  -nan(ind)  -nan(ind)  -nan(ind)  -nan(ind)  -nan(ind)
  336200                  1.00   -nan(ind)  -nan(ind)  -nan(ind)  -nan(ind)  -nan(ind)  -nan(ind)  -nan(ind)  -nan(ind)  -nan(ind)
  336202                  1.00   -nan(ind)  -nan(ind)  -nan(ind)  -nan(ind)  -nan(ind)  -nan(ind)  -nan(ind)  -nan(ind)  -nan(ind)
  336204                  1.00   -nan(ind)  -nan(ind)  -nan(ind)  -nan(ind)  -nan(ind)  -nan(ind)  -nan(ind)  -nan(ind)  -nan(ind)
  336206                  1.00   -nan(ind)  -nan(ind)  -nan(ind)  -nan(ind)  -nan(ind)  -nan(ind)  -nan(ind)  -nan(ind)  -nan(ind)
  336208                  1.00   -nan(ind)  -nan(ind)  -nan(ind)  -nan(ind)  -nan(ind)  -nan(ind)  -nan(ind)  -nan(ind)  -nan(ind)
  336210                  1.00   -nan(ind)  -nan(ind)  -nan(ind)  -nan(ind)  -nan(ind)  -nan(ind)  -nan(ind)  -nan(ind)  -nan(ind)
  336212                  1.00   -nan(ind)  -nan(ind)  -nan(ind)  -nan(ind)  -nan(ind)  -nan(ind)  -nan(ind)  -nan(ind)  -nan(ind)
  336216                  1.00   -nan(ind)  -nan(ind)  -nan(ind)  -nan(ind)  -nan(ind)  -nan(ind)  -nan(ind)  -nan(ind)  -nan(ind)
  336218                  1.00   -nan(ind)  -nan(ind)  -nan(ind)  -nan(ind)  -nan(ind)  -nan(ind)  -nan(ind)  -nan(ind)  -nan(ind)
  336222                  1.00   -nan(ind)  -nan(ind)  -nan(ind)  -nan(ind)  -nan(ind)  -nan(ind)  -nan(ind)  -nan(ind)  -nan(ind)
  336224                  1.00   -nan(ind)  -nan(ind)  -nan(ind)  -nan(ind)  -nan(ind)  -nan(ind)  -nan(ind)  -nan(ind)  -nan(ind)
  336226                  1.00   -nan(ind)  -nan(ind)  -nan(ind)  -nan(ind)  -nan(ind)  -nan(ind)  -nan(ind)  -nan(ind)  -nan(ind)
  336228                  1.00   -nan(ind)  -nan(ind)  -nan(ind)  -nan(ind)  -nan(ind)  -nan(ind)  -nan(ind)  -nan(ind)  -nan(ind)
  336230                  1.00   -nan(ind)  -nan(ind)  -nan(ind)  -nan(ind)  -nan(ind)  -nan(ind)  -nan(ind)  -nan(ind)  -nan(ind)
  336232                  1.00   -nan(ind)  -nan(ind)  -nan(ind)  -nan(ind)  -nan(ind)  -nan(ind)  -nan(ind)  -nan(ind)  -nan(ind)
  336234                  1.00   -nan(ind)  -nan(ind)  -nan(ind)  -nan(ind)  -nan(ind)  -nan(ind)  -nan(ind)  -nan(ind)  -nan(ind)
  336236                  1.00   -nan(ind)  -nan(ind)  -nan(ind)  -nan(ind)  -nan(ind)  -nan(ind)  -nan(ind)  -nan(ind)  -nan(ind)
  336238                  1.00   -nan(ind)  -nan(ind)  -nan(ind)  -nan(ind)  -nan(ind)  -nan(ind)  -nan(ind)  -nan(ind)  -nan(ind)
  336240                  1.00   -nan(ind)  -nan(ind)  -nan(ind)  -nan(ind)  -nan(ind)  -nan(ind)  -nan(ind)  -nan(ind)  -nan(ind)
  336242                  1.00   -nan(ind)  -nan(ind)  -nan(ind)  -nan(ind)  -nan(ind)  -nan(ind)  -nan(ind)  -nan(ind)  -nan(ind)
  336244                  1.00   -nan(ind)  -nan(ind)  -nan(ind)  -nan(ind)  -nan(ind)  -nan(ind)  -nan(ind)  -nan(ind)  -nan(ind)
  336246                  1.00   -nan(ind)  -nan(ind)  -nan(ind)  -nan(ind)  -nan(ind)  -nan(ind)  -nan(ind)  -nan(ind)  -nan(ind)
  336248                  1.00   -nan(ind)  -nan(ind)  -nan(ind)  -nan(ind)  -nan(ind)  -nan(ind)  -nan(ind)  -nan(ind)  -nan(ind)
  336250                  1.00   -nan(ind)  -nan(ind)  -nan(ind)  -nan(ind)  -nan(ind)  -nan(ind)  -nan(ind)  -nan(ind)  -nan(ind)
  336252                  1.00   -nan(ind)  -nan(ind)  -nan(ind)  -nan(ind)  -nan(ind)  -nan(ind)  -nan(ind)  -nan(ind)  -nan(ind)
  336254                  1.00   -nan(ind)  -nan(ind)  -nan(ind)  -nan(ind)  -nan(ind)  -nan(ind)  -nan(ind)  -nan(ind)  -nan(ind)
  336256                  1.00   -nan(ind)  -nan(ind)  -nan(ind)  -nan(ind)  -nan(ind)  -nan(ind)  -nan(ind)  -nan(ind)  -nan(ind)
  336258                  1.00   -nan(ind)  -nan(ind)  -nan(ind)  -nan(ind)  -nan(ind)  -nan(ind)  -nan(ind)  -nan(ind)  -nan(ind)
  336260                  1.00   -nan(ind)  -nan(ind)  -nan(ind)  -nan(ind)  -nan(ind)  -nan(ind)  -nan(ind)  -nan(ind)  -nan(ind)
  336262                  1.00   -nan(ind)  -nan(ind)  -nan(ind)  -nan(ind)  -nan(ind)  -nan(ind)  -nan(ind)  -nan(ind)  -nan(ind)
  336264                  1.00   -nan(ind)  -nan(ind)  -nan(ind)  -nan(ind)  -nan(ind)  -nan(ind)  -nan(ind)  -nan(ind)  -nan(ind)
  336266                  1.00   -nan(ind)  -nan(ind)  -nan(ind)  -nan(ind)  -nan(ind)  -nan(ind)  -nan(ind)  -nan(ind)  -nan(ind)
  336268                  1.00   -nan(ind)  -nan(ind)  -nan(ind)  -nan(ind)  -nan(ind)  -nan(ind)  -nan(ind)  -nan(ind)  -nan(ind)
  336270                  1.00   -nan(ind)  -nan(ind)  -nan(ind)  -nan(ind)  -nan(ind)  -nan(ind)  -nan(ind)  -nan(ind)  -nan(ind)
  336272                  1.00   -nan(ind)  -nan(ind)  -nan(ind)  -nan(ind)  -nan(ind)  -nan(ind)  -nan(ind)  -nan(ind)  -nan(ind)
  336274                  1.00   -nan(ind)  -nan(ind)  -nan(ind)  -nan(ind)  -nan(ind)  -nan(ind)  -nan(ind)  -nan(ind)  -nan(ind)
  337400                  1.00   -nan(ind)  -nan(ind)  -nan(ind)  -nan(ind)  -nan(ind)  -nan(ind)  -nan(ind)  -nan(ind)  -nan(ind)
  348000                  1.00   -nan(ind)  -nan(ind)  -nan(ind)  -nan(ind)  -nan(ind)  -nan(ind)  -nan(ind)  -nan(ind)  -nan(ind)
  348200                  1.00   -nan(ind)  -nan(ind)  -nan(ind)  -nan(ind)  -nan(ind)  -nan(ind)  -nan(ind)  -nan(ind)  -nan(ind)
  348400                  1.00   -nan(ind)  -nan(ind)  -nan(ind)  -nan(ind)  -nan(ind)  -nan(ind)  -nan(ind)  -nan(ind)  -nan(ind)
  348600                  1.00   -nan(ind)  -nan(ind)  -nan(ind)  -nan(ind)  -nan(ind)  -nan(ind)  -nan(ind)  -nan(ind)  -nan(ind)
  348800                  1.00   -nan(ind)  -nan(ind)  -nan(ind)  -nan(ind)  -nan(ind)  -nan(ind)  -nan(ind)  -nan(ind)  -nan(ind)
  349000                  1.00   -nan(ind)  -nan(ind)  -nan(ind)  -nan(ind)  -nan(ind)  -nan(ind)  -nan(ind)  -nan(ind)  -nan(ind)
  349200                  1.00   -nan(ind)  -nan(ind)  -nan(ind)  -nan(ind)  -nan(ind)  -nan(ind)  -nan(ind)  -nan(ind)  -nan(ind)
  349400                  1.00   -nan(ind)  -nan(ind)  -nan(ind)  -nan(ind)  -nan(ind)  -nan(ind)  -nan(ind)  -nan(ind)  -nan(ind)
  349800                  1.00   -nan(ind)  -nan(ind)  -nan(ind)  -nan(ind)  -nan(ind)  -nan(ind)  -nan(ind)  -nan(ind)  -nan(ind)
  350000                  1.00   -nan(ind)  -nan(ind)  -nan(ind)  -nan(ind)  -nan(ind)  -nan(ind)  -nan(ind)  -nan(ind)  -nan(ind)
  350200                  1.00   -nan(ind)  -nan(ind)  -nan(ind)  -nan(ind)  -nan(ind)  -nan(ind)  -nan(ind)  -nan(ind)  -nan(ind)
  350400                  1.00   -nan(ind)  -nan(ind)  -nan(ind)  -nan(ind)  -nan(ind)  -nan(ind)  -nan(ind)  -nan(ind)  -nan(ind)
  350600                  1.00   -nan(ind)  -nan(ind)  -nan(ind)  -nan(ind)  -nan(ind)  -nan(ind)  -nan(ind)  -nan(ind)  -nan(ind)
  376400                  1.00   -nan(ind)  -nan(ind)  -nan(ind)  -nan(ind)  -nan(ind)  -nan(ind)  -nan(ind)  -nan(ind)  -nan(ind)
  376600                  1.00   -nan(ind)  -nan(ind)  -nan(ind)  -nan(ind)  -nan(ind)  -nan(ind)  -nan(ind)  -nan(ind)  -nan(ind)
  376800                  1.00   -nan(ind)  -nan(ind)  -nan(ind)  -nan(ind)  -nan(ind)  -nan(ind)  -nan(ind)  -nan(ind)  -nan(ind)
  377000                  1.00   -nan(ind)  -nan(ind)  -nan(ind)  -nan(ind)  -nan(ind)  -nan(ind)  -nan(ind)  -nan(ind)  -nan(ind)
  378800                  1.00   -nan(ind)  -nan(ind)  -nan(ind)  -nan(ind)  -nan(ind)  -nan(ind)  -nan(ind)  -nan(ind)  -nan(ind)
  379600                  1.00   -nan(ind)  -nan(ind)  -nan(ind)  -nan(ind)  -nan(ind)  -nan(ind)  -nan(ind)  -nan(ind)  -nan(ind)
  379800                  1.00   -nan(ind)  -nan(ind)  -nan(ind)  -nan(ind)  -nan(ind)  -nan(ind)  -nan(ind)  -nan(ind)  -nan(ind)
  380000                  1.00   -nan(ind)  -nan(ind)  -nan(ind)  -nan(ind)  -nan(ind)  -nan(ind)  -nan(ind)  -nan(ind)  -nan(ind)
  380200                  1.00   -nan(ind)  -nan(ind)  -nan(ind)  -nan(ind)  -nan(ind)  -nan(ind)  -nan(ind)  -nan(ind)  -nan(ind)
  380400                  1.00   -nan(ind)  -nan(ind)  -nan(ind)  -nan(ind)  -nan(ind)  -nan(ind)  -nan(ind)  -nan(ind)  -nan(ind)
  380600                  1.00   -nan(ind)  -nan(ind)  -nan(ind)  -nan(ind)  -nan(ind)  -nan(ind)  -nan(ind)  -nan(ind)  -nan(ind)
  381000                  1.00   -nan(ind)  -nan(ind)  -nan(ind)  -nan(ind)  -nan(ind)  -nan(ind)  -nan(ind)  -nan(ind)  -nan(ind)
  381200                  1.00   -nan(ind)  -nan(ind)  -nan(ind)  -nan(ind)  -nan(ind)  -nan(ind)  -nan(ind)  -nan(ind)  -nan(ind)
  381600                  1.00   -nan(ind)  -nan(ind)  -nan(ind)  -nan(ind)  -nan(ind)  -nan(ind)  -nan(ind)  -nan(ind)  -nan(ind)
  382600                  1.00   -nan(ind)  -nan(ind)  -nan(ind)  -nan(ind)  -nan(ind)  -nan(ind)  -nan(ind)  -nan(ind)  -nan(ind)
  382800                  1.00   -nan(ind)  -nan(ind)  -nan(ind)  -nan(ind)  -nan(ind)  -nan(ind)  -nan(ind)  -nan(ind)  -nan(ind)
  395000                  1.00   -nan(ind)  -nan(ind)  -nan(ind)  -nan(ind)  -nan(ind)  -nan(ind)  -nan(ind)  -nan(ind)  -nan(ind)
  397000                  1.00   -nan(ind)  -nan(ind)  -nan(ind)  -nan(ind)  -nan(ind)  -nan(ind)  -nan(ind)  -nan(ind)  -nan(ind)
  402200                  1.00   -nan(ind)  -nan(ind)  -nan(ind)  -nan(ind)  -nan(ind)  -nan(ind)  -nan(ind)  -nan(ind)  -nan(ind)
  402400                  1.00   -nan(ind)  -nan(ind)  -nan(ind)  -nan(ind)  -nan(ind)  -nan(ind)  -nan(ind)  -nan(ind)  -nan(ind)
  402600                  1.00   -nan(ind)  -nan(ind)  -nan(ind)  -nan(ind)  -nan(ind)  -nan(ind)  -nan(ind)  -nan(ind)  -nan(ind)
  402800                  1.00   -nan(ind)  -nan(ind)  -nan(ind)  -nan(ind)  -nan(ind)  -nan(ind)  -nan(ind)  -nan(ind)  -nan(ind)
  403000                  1.00   -nan(ind)  -nan(ind)  -nan(ind)  -nan(ind)  -nan(ind)  -nan(ind)  -nan(ind)  -nan(ind)  -nan(ind)
  
  
  *************************
  Conduit Surcharge Summary
  *************************
  
  No conduits were surcharged.
  

  Analysis begun on:  Sat Nov 30 08:10:22 2019
  Analysis ended on:  Sat Nov 30 08:10:22 2019
  Total elapsed time: < 1 sec