
  EPA STORM WATER MANAGEMENT MODEL - VERSION 5.1 (Build 5.1.013)
  --------------------------------------------------------------

  WARNING 02: maximum depth increased for Node J2
  
  *********************************************************
  NOTE: The summary statistics displayed in this report are
  based on results found at every computational time step,  
  not just on results from each reporting time step.
  *********************************************************
  
  ****************
  Analysis Options
  ****************
  Flow Units ............... CMS
  Process Models:
    Rainfall/Runoff ........ YES
    RDII ................... NO
    Snowmelt ............... NO
    Groundwater ............ NO
    Flow Routing ........... YES
    Ponding Allowed ........ YES
    Water Quality .......... NO
  Infiltration Method ...... HORTON
  Flow Routing Method ...... KINWAVE
  Starting Date ............ 03/03/2014 00:00:00
  Ending Date .............. 03/04/2014 00:00:00
  Antecedent Dry Days ...... 0.0
  Report Time Step ......... 00:15:00
  Wet Time Step ............ 00:05:00
  Dry Time Step ............ 01:00:00
  Routing Time Step ........ 1.00 sec
  
  
  **************************        Volume         Depth
  Runoff Quantity Continuity     hectare-m            mm
  **************************     ---------       -------
  Total Precipitation ......         2.213       108.027
  Evaporation Loss .........         0.000         0.000
  Infiltration Loss ........         0.678        33.118
  Surface Runoff ...........         1.528        74.600
  Final Storage ............         0.013         0.629
  Continuity Error (%) .....        -0.296
  
  
  **************************        Volume        Volume
  Flow Routing Continuity        hectare-m      10^6 ltr
  **************************     ---------     ---------
  Dry Weather Inflow .......         0.000         0.000
  Wet Weather Inflow .......         1.528        15.277
  Groundwater Inflow .......         0.000         0.000
  RDII Inflow ..............         0.000         0.000
  External Inflow ..........         0.000         0.000
  External Outflow .........         1.288        12.880
  Flooding Loss ............         0.227         2.265
  Evaporation Loss .........         0.000         0.000
  Exfiltration Loss ........         0.000         0.000
  Initial Stored Volume ....         0.000         0.000
  Final Stored Volume ......         0.018         0.183
  Continuity Error (%) .....        -0.336
  
  
  ********************************
  Highest Flow Instability Indexes
  ********************************
  All links are stable.
  
  
  *************************
  Routing Time Step Summary
  *************************
  Minimum Time Step           :     1.00 sec
  Average Time Step           :     1.00 sec
  Maximum Time Step           :     1.00 sec
  Percent in Steady State     :     0.00
  Average Iterations per Step :     1.00
  Percent Not Converging      :     0.00
  
  
  ***************************
  Subcatchment Runoff Summary
  ***************************
  
  ------------------------------------------------------------------------------------------------------------------------------
                            Total      Total      Total      Total     Imperv       Perv      Total       Total     Peak  Runoff
                           Precip      Runon       Evap      Infil     Runoff     Runoff     Runoff      Runoff   Runoff   Coeff
  Subcatchment                 mm         mm         mm         mm         mm         mm         mm    10^6 ltr      CMS
  ------------------------------------------------------------------------------------------------------------------------------
  S1                       108.03       0.00       0.00      23.05      80.55       4.02      84.57        1.35     0.48   0.783
  S2                       108.03       0.00       0.00      23.10      80.52       3.96      84.49        0.75     0.26   0.782
  S3                       108.03       0.00       0.00      22.91      80.61       4.17      84.78        1.91     0.70   0.785
  S4                       108.03       0.00       0.00      23.02      80.56       4.05      84.61        0.87     0.31   0.783
  S5                       108.03       0.00       0.00      22.71      80.70       4.38      85.08        1.05     0.41   0.788
  S11                      108.03       0.00       0.00      22.64      80.73       4.45      85.18        0.53     0.21   0.789
  S6                       108.03       0.00       0.00      23.38      80.38       3.68      84.06        1.11     0.35   0.778
  S7                       108.03       0.00       0.00      23.13      80.51       3.94      84.44        0.78     0.27   0.782
  S12                      108.03       0.00       0.00      22.87      80.63       4.22      84.85        0.64     0.24   0.785
  S8                       108.03       0.00       0.00      23.18      80.48       3.89      84.37        0.85     0.29   0.781
  S13                      108.03       0.00       0.00      22.69      80.71       4.40      85.11        0.61     0.24   0.788
  S14                      108.03       0.00       0.00      22.72      80.70       4.37      85.07        0.80     0.31   0.787
  S9                       108.03       0.00       0.00      22.82      80.65       4.27      84.92        0.79     0.30   0.786
  S10                      108.03       0.00       0.00      22.95      80.59       4.12      84.71        2.01     0.73   0.784
  S15                      108.03       0.00       0.00      76.18      26.89       4.87      31.76        1.24     0.43   0.294
  
  
  ******************
  Node Depth Summary
  ******************
  
  ---------------------------------------------------------------------------------
                                 Average  Maximum  Maximum  Time of Max    Reported
                                   Depth    Depth      HGL   Occurrence   Max Depth
  Node                 Type       Meters   Meters   Meters  days hr:min      Meters
  ---------------------------------------------------------------------------------
  J1                   JUNCTION     1.70     1.78  1298.28     0  12:03        1.76
  J2                   JUNCTION     2.06     2.15  1300.55     0  12:05        2.13
  J3                   JUNCTION     2.07     2.20  1301.55     0  12:03        2.19
  J4                   JUNCTION     1.47     1.47  1304.26     0  00:00        1.47
  J6                   JUNCTION     1.67     1.80  1302.97     0  12:04        1.77
  J8                   JUNCTION     1.78     1.87  1303.92     0  12:11        1.86
  J10                  JUNCTION     1.45     1.60  1304.67     0  12:03        1.54
  J18                  JUNCTION     1.47     1.54  1304.98     0  12:06        1.47
  J12                  JUNCTION     1.45     1.60  1305.62     0  12:05        1.54
  J14                  JUNCTION     1.45     1.55  1307.18     0  12:05        1.48
  J19                  JUNCTION     1.47     1.55  1305.89     0  12:05        1.47
  J13                  JUNCTION     1.47     1.47  1307.35     0  00:00        1.47
  J11                  JUNCTION     1.47     1.47  1306.79     0  00:00        1.47
  J9                   JUNCTION     1.47     1.47  1306.16     0  00:00        1.47
  J7                   JUNCTION     1.47     1.47  1306.03     0  00:00        1.47
  J5                   JUNCTION     1.47     1.53  1304.65     0  12:05        1.47
  J17                  JUNCTION     0.00     0.00  1302.72     0  00:00        0.00
  J16                  JUNCTION     1.47     1.54  1303.33     0  12:06        1.47
  Out1                 OUTFALL      0.14     0.45  1293.95     0  12:15        0.45
  J20                  DIVIDER      0.06     0.13  1298.41     0  12:05        0.11
  J21                  DIVIDER      0.06     0.10  1300.68     0  12:54        0.10
  J22                  DIVIDER      0.06     0.12  1301.57     0  12:21        0.12
  J23                  DIVIDER      0.03     0.10  1304.49     0  12:08        0.08
  J24                  DIVIDER      0.02     0.10  1304.82     0  12:03        0.08
  J25                  DIVIDER      0.02     0.09  1306.25     0  12:05        0.06
  J26                  DIVIDER      0.05     0.24  1303.63     0  12:03        0.23
  J27                  DIVIDER      0.06     0.24  1303.21     0  12:13        0.23
  J30                  DIVIDER      0.05     0.12  1304.17     0  12:32        0.12
  J33                  DIVIDER      0.05     0.12  1304.79     0  11:55        0.12
  J36                  DIVIDER      0.04     0.11  1305.73     0  11:57        0.11
  J37                  DIVIDER      0.03     0.10  1307.33     0  12:00        0.10
  J34                  DIVIDER      0.02     0.10  1307.58     0  12:05        0.08
  J35                  DIVIDER      0.03     0.10  1306.04     0  12:02        0.10
  J31                  DIVIDER      0.02     0.10  1307.01     0  12:05        0.07
  J32                  DIVIDER      0.03     0.10  1305.14     0  12:07        0.09
  J28                  DIVIDER      0.02     0.10  1306.39     0  12:05        0.07
  J29                  DIVIDER      0.03     0.13  1304.45     0  12:03        0.10
  J38                  DIVIDER      0.03     0.13  1301.68     0  11:59        0.13
  J15                  DIVIDER      0.14     0.45  1295.45     0  12:15        0.45
  Pond1                STORAGE      0.58     2.00  1297.10     0  12:22        2.00
  
  
  *******************
  Node Inflow Summary
  *******************
  
  -------------------------------------------------------------------------------------------------
                                  Maximum  Maximum                  Lateral       Total        Flow
                                  Lateral    Total  Time of Max      Inflow      Inflow     Balance
                                   Inflow   Inflow   Occurrence      Volume      Volume       Error
  Node                 Type           CMS      CMS  days hr:min    10^6 ltr    10^6 ltr     Percent
  -------------------------------------------------------------------------------------------------
  J1                   JUNCTION     0.434    3.445     0  12:04        1.24        14.4       0.000
  J2                   JUNCTION     0.000    2.245     0  12:04           0        4.05       0.000
  J3                   JUNCTION     0.000    2.569     0  12:09           0        4.01      -0.000
  J4                   JUNCTION     0.309    0.395     0  12:05       0.867       0.881       0.000
  J6                   JUNCTION     0.000    1.877     0  12:04           0        2.26       0.000
  J8                   JUNCTION     0.000    1.417     0  12:04           0        1.57       0.000
  J10                  JUNCTION     0.000    1.477     0  12:06           0        1.16       0.000
  J18                  JUNCTION     0.000    0.144     0  12:06           0      0.0477       0.000
  J12                  JUNCTION     0.000    0.961     0  12:05           0       0.641      -0.000
  J14                  JUNCTION     0.000    0.392     0  12:05           0       0.172       0.000
  J19                  JUNCTION     0.000    0.221     0  12:05           0      0.0739       0.000
  J13                  JUNCTION     0.000    0.000     0  00:00           0           0       0.000 ltr
  J11                  JUNCTION     0.000    0.000     0  00:00           0           0       0.000 ltr
  J9                   JUNCTION     0.000    0.000     0  00:00           0           0       0.000 ltr
  J7                   JUNCTION     0.000    0.000     0  00:00           0           0       0.000 ltr
  J5                   JUNCTION     0.000    0.089     0  12:05           0      0.0143       0.000
  J17                  JUNCTION     0.000    0.000     0  00:00           0           0       0.000 ltr
  J16                  JUNCTION     0.000    0.158     0  12:06           0      0.0601       0.000
  Out1                 OUTFALL      0.000    0.695     0  12:15           0        12.9       0.000
  J20                  DIVIDER      0.477    0.835     0  12:05        1.35        9.09       0.000
  J21                  DIVIDER      0.259    0.617     0  12:05       0.745         8.1       0.000
  J22                  DIVIDER      0.000    0.695     0  12:21           0        8.23       0.000
  J23                  DIVIDER      0.000    0.319     0  12:08           0        1.04       0.000
  J24                  DIVIDER      0.409    0.409     0  12:05        1.05        1.05       0.000
  J25                  DIVIDER      0.212    0.212     0  12:05       0.533       0.533       0.000
  J26                  DIVIDER      0.354    0.518     0  12:06        1.11        1.64       0.000
  J27                  DIVIDER      0.000    0.698     0  12:13           0        6.32       0.000
  J30                  DIVIDER      0.000    0.696     0  12:11           0        5.28       0.000
  J33                  DIVIDER      0.000    0.682     0  12:12           0        4.37       0.000
  J36                  DIVIDER      0.000    0.696     0  12:12           0        3.35       0.000
  J37                  DIVIDER      0.731    0.731     0  12:05        2.01        2.01       0.000
  J34                  DIVIDER      0.311    0.311     0  12:05         0.8         0.8       0.000
  J35                  DIVIDER      0.298    0.580     0  12:05       0.789        1.59       0.000
  J31                  DIVIDER      0.240    0.240     0  12:05       0.613       0.613       0.000
  J32                  DIVIDER      0.288    0.489     0  12:06       0.848        1.46       0.000
  J28                  DIVIDER      0.238    0.238     0  12:05       0.637       0.637       0.000
  J29                  DIVIDER      0.269    0.463     0  12:06        0.78        1.42      -0.000
  J38                  DIVIDER      0.702    0.978     0  12:05        1.91        2.94       0.000
  J15                  DIVIDER      0.000    1.453     0  12:22           0        14.1       0.000
  Pond1                STORAGE      0.000    3.285     0  12:10           0        14.3      -0.000
  
  
  *********************
  Node Flooding Summary
  *********************
  
  Flooding refers to all water that overflows a node, whether it ponds or not.
  --------------------------------------------------------------------------
                                                             Total   Maximum
                                 Maximum   Time of Max       Flood    Ponded
                        Hours       Rate    Occurrence      Volume    Volume
  Node                 Flooded       CMS   days hr:min    10^6 ltr   1000 m3
  --------------------------------------------------------------------------
  J1                      0.12     0.385      0  12:04       0.081     0.000
  J3                      0.19     0.701      0  12:09       0.321     0.000
  J6                      0.07     0.055      0  12:04       0.006     0.000
  J10                     0.13     0.498      0  12:06       0.119     0.000
  J12                     0.03     0.046      0  12:05       0.003     0.000
  J29                     0.13     0.104      0  12:06       0.031     0.000
  J38                     0.36     0.620      0  12:05       0.393     0.000
  J15                     0.77     0.811      0  12:22       1.247     0.000
  Pond1                   0.08     0.469      0  12:22       0.065     0.000
  
  
  **********************
  Storage Volume Summary
  **********************
  
  --------------------------------------------------------------------------------------------------
                         Average     Avg  Evap Exfil       Maximum     Max    Time of Max    Maximum
                          Volume    Pcnt  Pcnt  Pcnt        Volume    Pcnt     Occurrence    Outflow
  Storage Unit           1000 m3    Full  Loss  Loss       1000 m3    Full    days hr:min        CMS
  --------------------------------------------------------------------------------------------------
  Pond1                    0.906      21     0     0         4.400     100       0  12:22      1.453
  
  
  ***********************
  Outfall Loading Summary
  ***********************
  
  -----------------------------------------------------------
                         Flow       Avg       Max       Total
                         Freq      Flow      Flow      Volume
  Outfall Node           Pcnt       CMS       CMS    10^6 ltr
  -----------------------------------------------------------
  Out1                  98.12     0.152     0.695      12.880
  -----------------------------------------------------------
  System                98.12     0.152     0.695      12.880
  
  
  ********************
  Link Flow Summary
  ********************
  
  -----------------------------------------------------------------------------
                                 Maximum  Time of Max   Maximum    Max/    Max/
                                  |Flow|   Occurrence   |Veloc|    Full    Full
  Link                 Type          CMS  days hr:min     m/sec    Flow   Depth
  -----------------------------------------------------------------------------
  P1                   CONDUIT     0.088     0  12:05      2.34    0.18    0.29
  P2                   CONDUIT     0.377     0  12:05      3.46    0.36    0.41
  P3                   CONDUIT     2.016     0  12:04      4.99    1.08    1.00
  P4                   CONDUIT     2.263     0  12:04      5.19    0.78    0.65
  P5                   CONDUIT     0.385     0  12:05      3.52    0.76    0.65
  P6                   CONDUIT     0.989     0  12:06      3.80    1.08    0.92
  P7                   CONDUIT     1.058     0  12:04      4.10    1.08    1.00
  P8                   CONDUIT     1.429     0  12:04      4.53    0.82    0.68
  P9                   CONDUIT     1.966     0  12:09      4.84    1.08    0.92
  P14                  CONDUIT     3.285     0  12:10      5.63    1.08    0.95
  C15                  CONDUIT     0.695     0  12:15      4.75    1.08    1.00
  P19                  CONDUIT     0.000     0  00:00      0.00    0.00    0.00
  P20                  CONDUIT     0.158     0  12:06      3.18    0.12    0.23
  P21                  CONDUIT     0.000     0  00:00      0.00    0.00    0.00
  P22                  CONDUIT     0.000     0  00:00      0.00    0.00    0.00
  P23                  CONDUIT     0.000     0  00:00      0.00    0.00    0.00
  P24                  CONDUIT     0.144     0  12:06      3.16    0.10    0.22
  P25                  CONDUIT     0.000     0  00:00      0.00    0.00    0.00
  P26                  CONDUIT     0.221     0  12:05      3.06    0.20    0.30
  S10                  CHANNEL     0.319     0  12:08      1.17    0.44    0.76
  S12                  CHANNEL     0.358     0  12:54      1.17    0.53    0.80
  S13                  CHANNEL     0.359     0  12:57      1.24    0.48    0.78
  S27                  CHANNEL     0.191     0  12:07      1.00    0.29    0.65
  S28                  CONDUIT     0.361     0  12:13      2.50    0.13    0.24
  S29                  CHANNEL     0.338     0  12:46      1.10    0.44    0.74
  S30                  CHANNEL     0.338     0  12:39      1.23    0.38    0.70
  S31                  CHANNEL     0.338     0  12:32      0.96    0.53    0.79
  S32                  CHANNEL     0.339     0  12:16      1.25    0.37    0.69
  S33                  CHANNEL     0.339     0  12:25      1.10    0.45    0.74
  S34                  CHANNEL     0.222     0  12:07      0.99    0.40    0.73
  S35                  CHANNEL     0.345     0  12:12      1.49    0.40    0.73
  S36                  CHANNEL     0.298     0  12:06      1.12    0.49    0.78
  S37                  CHANNEL     0.359     0  12:12      1.30    0.51    0.80
  S38                  CHANNEL     0.218     0  12:07      0.97    0.40    0.73
  S39                  CHANNEL     0.359     0  12:11      1.21    0.57    0.82
  S40                  CHANNEL     0.000     0  00:00      0.00    0.00    0.00
  S41                  CHANNEL     0.089     0  12:05      1.76    0.10    0.44
  S42                  CHANNEL     0.337     0  12:21      0.98    0.77    0.91
  S43                  CHANNEL     0.259     0  12:05      1.35    0.30    0.66
  S44                  CHANNEL     0.834     0  12:05      1.90    0.93    0.98
  S45                  CHANNEL     0.361     0  12:13      1.51    0.44    0.76
  S46                  CHANNEL     0.359     0  12:11      1.84    0.34    0.69
  S47                  CHANNEL     0.345     0  12:12      1.65    0.30    0.64
  S48                  CHANNEL     0.359     0  12:12      1.82    0.31    0.65
  S49                  CHANNEL     0.392     0  12:05      1.78    0.34    0.67
  S50                  CHANNEL     0.000     0  00:00      0.00    0.00    0.00
  S51                  CHANNEL     0.000     0  00:00      0.00    0.00    0.00
  S52                  CHANNEL     0.000     0  00:00      0.00    0.00    0.00
  S53                  CHANNEL     0.000     0  00:00      0.00    0.00    0.00
  S54                  CHANNEL     0.158     0  12:06      1.78    0.19    0.56
  S56                  CHANNEL     0.144     0  12:06      1.82    0.18    0.54
  S57                  CHANNEL     0.221     0  12:05      1.82    0.27    0.63
  S59                  CHANNEL     0.323     0  12:09      1.13    0.49    0.78
  S60                  CHANNEL     0.358     0  12:21      1.27    0.46    0.77
  C17                  ORIFICE     0.353     0  12:22                      0.00
  C18                  ORIFICE     1.101     0  12:22                          
  C16                  WEIR        0.000     0  00:00                      0.00
  
  
  *************************
  Conduit Surcharge Summary
  *************************
  
  ----------------------------------------------------------------------------
                                                           Hours        Hours 
                         --------- Hours Full --------   Above Full   Capacity
  Conduit                Both Ends  Upstream  Dnstream   Normal Flow   Limited
  ----------------------------------------------------------------------------
  P3                          0.19      0.19      0.19      0.20         0.19
  P6                          0.03      0.03      0.03      0.03         0.03
  P7                          0.13      0.13      0.13      0.02         0.13
  P9                          0.07      0.07      0.07      0.08         0.07
  P14                         0.12      0.12      0.12      0.12         0.12
  C15                         0.77      0.77      0.77      0.02         0.77
  

  Analysis begun on:  Fri Nov 29 09:03:32 2019
  Analysis ended on:  Fri Nov 29 09:03:36 2019
  Total elapsed time: 00:00:04