
  EPA STORM WATER MANAGEMENT MODEL - VERSION 5.1 (Build 5.1.013)
  --------------------------------------------------------------

  WARNING 04: minimum elevation drop used for Conduit 64thStC
  WARNING 04: minimum elevation drop used for Conduit MC=93XAvT
  WARNING 04: minimum elevation drop used for Conduit MC-100PAC2
  WARNING 04: minimum elevation drop used for Conduit MC-100PAvC
  WARNING 04: minimum elevation drop used for Conduit MC-104sec1
  WARNING 04: minimum elevation drop used for Conduit MC-104sec2
  WARNING 04: minimum elevation drop used for Conduit MC-104SS6
  WARNING 04: minimum elevation drop used for Conduit MC-105CPk
  WARNING 04: minimum elevation drop used for Conduit MC-105P1A
  WARNING 04: minimum elevation drop used for Conduit MC-105P1B
  WARNING 04: minimum elevation drop used for Conduit MC-105P1C
  WARNING 04: minimum elevation drop used for Conduit MC-105P1EO
  WARNING 04: minimum elevation drop used for Conduit MC-105P2O
  WARNING 04: minimum elevation drop used for Conduit MC-105P3C1
  WARNING 04: minimum elevation drop used for Conduit MC-105P3C2
  WARNING 04: minimum elevation drop used for Conduit MC-105P3C3
  WARNING 04: minimum elevation drop used for Conduit MC-108CPkC
  WARNING 04: minimum elevation drop used for Conduit MC-108CPkT
  WARNING 04: minimum elevation drop used for Conduit MC-109nat
  WARNING 04: minimum elevation drop used for Conduit MC-113eof
  WARNING 04: minimum elevation drop used for Conduit MC-121nat
  WARNING 04: minimum elevation drop used for Conduit MC-122nat
  WARNING 04: minimum elevation drop used for Conduit MC-124SS2
  WARNING 04: minimum elevation drop used for Conduit MC-125OutC
  WARNING 04: minimum elevation drop used for Conduit MC-131TrT
  WARNING 04: minimum elevation drop used for Conduit MC-132DFtB
  WARNING 04: minimum elevation drop used for Conduit MC-132DFtT
  WARNING 04: minimum elevation drop used for Conduit MC-132FFtB
  WARNING 04: minimum elevation drop used for Conduit MC-132FFtT
  WARNING 04: minimum elevation drop used for Conduit MC-133LAvB
  WARNING 04: minimum elevation drop used for Conduit MC-133LAvT
  WARNING 04: minimum elevation drop used for Conduit MC-136GFtB
  WARNING 04: minimum elevation drop used for Conduit MC136MPk1B
  WARNING 04: minimum elevation drop used for Conduit MC136MPk1T
  WARNING 04: minimum elevation drop used for Conduit MC136MPk2T
  WARNING 04: minimum elevation drop used for Conduit MC-136NAvB
  WARNING 04: minimum elevation drop used for Conduit MC-136NFtB
  WARNING 04: minimum elevation drop used for Conduit MC-136NFtT
  WARNING 04: minimum elevation drop used for Conduit MC-136PAvB
  WARNING 04: minimum elevation drop used for Conduit MC-136PAvT
  WARNING 04: minimum elevation drop used for Conduit MC-136sec6
  WARNING 04: minimum elevation drop used for Conduit MC-137SAvB
  WARNING 04: minimum elevation drop used for Conduit MC-137SAvT
  WARNING 04: minimum elevation drop used for Conduit MC-138TFtB
  WARNING 04: minimum elevation drop used for Conduit MC-138TFtT
  WARNING 04: minimum elevation drop used for Conduit MC-141MPkB
  WARNING 04: minimum elevation drop used for Conduit MC-141MPkT
  WARNING 04: minimum elevation drop used for Conduit MC-141PAvB
  WARNING 04: minimum elevation drop used for Conduit MC-141PAvT
  WARNING 04: minimum elevation drop used for Conduit MC-144SS1
  WARNING 04: minimum elevation drop used for Conduit MC-144SS2
  WARNING 04: minimum elevation drop used for Conduit MC-148CAvB
  WARNING 04: minimum elevation drop used for Conduit MC-148CAvT
  WARNING 04: minimum elevation drop used for Conduit MC-148MPkB
  WARNING 04: minimum elevation drop used for Conduit MC-148MPkT
  WARNING 04: minimum elevation drop used for Conduit MC-14912B
  WARNING 04: minimum elevation drop used for Conduit MC-14912T
  WARNING 04: minimum elevation drop used for Conduit MC-149sec1
  WARNING 04: minimum elevation drop used for Conduit MC-15114B
  WARNING 04: minimum elevation drop used for Conduit MC-15114T
  WARNING 04: minimum elevation drop used for Conduit MC-151BAvB
  WARNING 04: minimum elevation drop used for Conduit MC-151BAvT
  WARNING 04: minimum elevation drop used for Conduit MC-15417B
  WARNING 04: minimum elevation drop used for Conduit MC-154CAbT
  WARNING 04: minimum elevation drop used for Conduit MC-158Chnl
  WARNING 04: minimum elevation drop used for Conduit MC-158MPkT
  WARNING 04: minimum elevation drop used for Conduit MC-159Ced
  WARNING 04: minimum elevation drop used for Conduit MC-159FRdT
  WARNING 04: minimum elevation drop used for Conduit MC160CR62T
  WARNING 04: minimum elevation drop used for Conduit MC-160T3
  WARNING 04: minimum elevation drop used for Conduit MC-168MPkB
  WARNING 04: minimum elevation drop used for Conduit MC-168PFtB
  WARNING 04: minimum elevation drop used for Conduit MC-168PFtT
  WARNING 04: minimum elevation drop used for Conduit MC-169Ft1B
  WARNING 04: minimum elevation drop used for Conduit MC-169Ft1T
  WARNING 04: minimum elevation drop used for Conduit MC-169Ft2B
  WARNING 04: minimum elevation drop used for Conduit MC-169Ft2T
  WARNING 04: minimum elevation drop used for Conduit MC-169Ft3B
  WARNING 04: minimum elevation drop used for Conduit MC-169Ft3T
  WARNING 04: minimum elevation drop used for Conduit MC-169Ft4B
  WARNING 04: minimum elevation drop used for Conduit MC-169Ft4T
  WARNING 04: minimum elevation drop used for Conduit MC-17428T
  WARNING 04: minimum elevation drop used for Conduit MC-17494C
  WARNING 04: minimum elevation drop used for Conduit MC-17494T
  WARNING 04: minimum elevation drop used for Conduit MC-174FtB
  WARNING 04: minimum elevation drop used for Conduit MC-174FtT
  WARNING 04: minimum elevation drop used for Conduit MC-175NAvB
  WARNING 04: minimum elevation drop used for Conduit MC-175NAvT
  WARNING 04: minimum elevation drop used for Conduit MC-178FT1B
  WARNING 04: minimum elevation drop used for Conduit MC-178Ft1T
  WARNING 04: minimum elevation drop used for Conduit MC-178Ft2B
  WARNING 04: minimum elevation drop used for Conduit MC-178Ft2T
  WARNING 04: minimum elevation drop used for Conduit MC-17934B
  WARNING 04: minimum elevation drop used for Conduit MC-17934T
  WARNING 04: minimum elevation drop used for Conduit MC-17MRdB
  WARNING 04: minimum elevation drop used for Conduit MC-17MRdT
  WARNING 04: minimum elevation drop used for Conduit MC-17xsec1
  WARNING 04: minimum elevation drop used for Conduit MC-17xsec3
  WARNING 04: minimum elevation drop used for Conduit MC-17xsec5
  WARNING 04: minimum elevation drop used for Conduit MC-17xsec6
  WARNING 04: minimum elevation drop used for Conduit MC-181HAvB
  WARNING 04: minimum elevation drop used for Conduit MC-181HAvT
  WARNING 04: minimum elevation drop used for Conduit MC-181MPkL
  WARNING 04: minimum elevation drop used for Conduit MC-181MPkR
  WARNING 04: minimum elevation drop used for Conduit MC-181MPkT
  WARNING 04: minimum elevation drop used for Conduit MC-181sec1
  WARNING 04: minimum elevation drop used for Conduit MC-181sec4
  WARNING 04: minimum elevation drop used for Conduit MC-182FtB
  WARNING 04: minimum elevation drop used for Conduit MC-182FtT
  WARNING 04: minimum elevation drop used for Conduit MC-182MAvB
  WARNING 04: minimum elevation drop used for Conduit MC-182MAvT
  WARNING 04: minimum elevation drop used for Conduit MC-182RRB
  WARNING 04: minimum elevation drop used for Conduit MC-182RRT
  WARNING 04: minimum elevation drop used for Conduit MC-182sec4
  WARNING 04: minimum elevation drop used for Conduit MC-184Ft1T
  WARNING 04: minimum elevation drop used for Conduit MC-184Ft2T
  WARNING 04: minimum elevation drop used for Conduit MC-184Ft3B
  WARNING 04: minimum elevation drop used for Conduit MC-184Ft3T
  WARNING 04: minimum elevation drop used for Conduit MC-184Ft4B
  WARNING 04: minimum elevation drop used for Conduit MC-184Ft5B
  WARNING 04: minimum elevation drop used for Conduit MC-184Ft5T
  WARNING 04: minimum elevation drop used for Conduit MC-184Ft6B
  WARNING 04: minimum elevation drop used for Conduit MC-184Ft6T
  WARNING 04: minimum elevation drop used for Conduit MC-184out
  WARNING 04: minimum elevation drop used for Conduit MC-184sec7
  WARNING 04: minimum elevation drop used for Conduit MC-20SRdT
  WARNING 04: minimum elevation drop used for Conduit MC-21nat
  WARNING 04: minimum elevation drop used for Conduit MC-23SRdT
  WARNING 04: minimum elevation drop used for Conduit MC-24SDrT
  WARNING 04: minimum elevation drop used for Conduit MC-25CRdC2
  WARNING 04: minimum elevation drop used for Conduit MC-25CRdT
  WARNING 04: minimum elevation drop used for Conduit MC-26MDrT
  WARNING 04: minimum elevation drop used for Conduit MC-27RR
  WARNING 04: minimum elevation drop used for Conduit MC-28BStB
  WARNING 04: minimum elevation drop used for Conduit MC-28PDBr
  WARNING 04: minimum elevation drop used for Conduit MC-28PDT
  WARNING 04: minimum elevation drop used for Conduit MC-28RRBr
  WARNING 04: minimum elevation drop used for Conduit MC-28xsec4
  WARNING 04: minimum elevation drop used for Conduit MC-28xsec5
  WARNING 04: minimum elevation drop used for Conduit MC-29AMiB
  WARNING 04: minimum elevation drop used for Conduit MC-29AMiT
  WARNING 04: minimum elevation drop used for Conduit MC-30CRdT
  WARNING 04: minimum elevation drop used for Conduit MC-31CCrT
  WARNING 04: minimum elevation drop used for Conduit MC-31PDBr
  WARNING 04: minimum elevation drop used for Conduit MC-31PDT
  WARNING 04: minimum elevation drop used for Conduit MC-31xsec1
  WARNING 04: minimum elevation drop used for Conduit MC-32RRBr
  WARNING 04: minimum elevation drop used for Conduit MC-32RRT
  WARNING 04: minimum elevation drop used for Conduit MC-32xsec4
  WARNING 04: minimum elevation drop used for Conduit MC-33nat
  WARNING 04: minimum elevation drop used for Conduit MC-35MBdT
  WARNING 04: minimum elevation drop used for Conduit MC-36MBdT
  WARNING 04: minimum elevation drop used for Conduit MC-3773Br
  WARNING 04: minimum elevation drop used for Conduit MC-37xsec5
  WARNING 04: minimum elevation drop used for Conduit MC-38CRdT
  WARNING 04: minimum elevation drop used for Conduit MC-41EOF
  WARNING 04: minimum elevation drop used for Conduit MC-41MBdBr
  WARNING 04: minimum elevation drop used for Conduit MC-41MBdT
  WARNING 04: minimum elevation drop used for Conduit MC-41xsec1
  WARNING 04: minimum elevation drop used for Conduit MC-41xsec3
  WARNING 04: minimum elevation drop used for Conduit MC-42ORdT
  WARNING 04: minimum elevation drop used for Conduit MC-44RCtT
  WARNING 04: minimum elevation drop used for Conduit MC-45WLnT
  WARNING 04: minimum elevation drop used for Conduit MC-4622
  WARNING 04: minimum elevation drop used for Conduit MC-47CRdT
  WARNING 04: minimum elevation drop used for Conduit MC-48RR
  WARNING 04: minimum elevation drop used for Conduit MC-49AAvT
  WARNING 04: minimum elevation drop used for Conduit MC-5334T
  WARNING 04: minimum elevation drop used for Conduit MC-54RR
  WARNING 04: minimum elevation drop used for Conduit MC-5636Br
  WARNING 04: minimum elevation drop used for Conduit MC-5636Lt
  WARNING 04: minimum elevation drop used for Conduit MC-5636Rt
  WARNING 04: minimum elevation drop used for Conduit MC-5636T
  WARNING 04: minimum elevation drop used for Conduit MC-5637Br
  WARNING 04: minimum elevation drop used for Conduit MC-5637Lt
  WARNING 04: minimum elevation drop used for Conduit MC-5637Rt
  WARNING 04: minimum elevation drop used for Conduit MC-5637T
  WARNING 04: minimum elevation drop used for Conduit MC-56sec12
  WARNING 04: minimum elevation drop used for Conduit MC-56xsec1
  WARNING 04: minimum elevation drop used for Conduit MC-56xsec3
  WARNING 04: minimum elevation drop used for Conduit MC-56xsec6
  WARNING 04: minimum elevation drop used for Conduit MC-577Br
  WARNING 04: minimum elevation drop used for Conduit MC-577T
  WARNING 04: minimum elevation drop used for Conduit MC-57xsec4
  WARNING 04: minimum elevation drop used for Conduit MC-58CStBr
  WARNING 04: minimum elevation drop used for Conduit MC-58CStT
  WARNING 04: minimum elevation drop used for Conduit MC-59VAvT
  WARNING 04: minimum elevation drop used for Conduit MC-60BRdBr
  WARNING 04: minimum elevation drop used for Conduit MC-60BRdT
  WARNING 04: minimum elevation drop used for Conduit MC-61LStT
  WARNING 04: minimum elevation drop used for Conduit MC-61xsec3
  WARNING 04: minimum elevation drop used for Conduit MC-62BTBr
  WARNING 04: minimum elevation drop used for Conduit MC-62BTT
  WARNING 04: minimum elevation drop used for Conduit MC-62RRBr
  WARNING 04: minimum elevation drop used for Conduit MC-62RRT
  WARNING 04: minimum elevation drop used for Conduit MC-62sec14
  WARNING 04: minimum elevation drop used for Conduit MC-62xsec5
  WARNING 04: minimum elevation drop used for Conduit MC-62xsec7
  WARNING 04: minimum elevation drop used for Conduit MC-63KCiT
  WARNING 04: minimum elevation drop used for Conduit MC-65MRdBC
  WARNING 04: minimum elevation drop used for Conduit MC-65MRdBL
  WARNING 04: minimum elevation drop used for Conduit MC-65MRdBR
  WARNING 04: minimum elevation drop used for Conduit MC-65MRdT
  WARNING 04: minimum elevation drop used for Conduit MC-65xsec1
  WARNING 04: minimum elevation drop used for Conduit MC-66WStT
  WARNING 04: minimum elevation drop used for Conduit MC-68LABrC
  WARNING 04: minimum elevation drop used for Conduit MC-68LABrL
  WARNING 04: minimum elevation drop used for Conduit MC-68LABrR
  WARNING 04: minimum elevation drop used for Conduit MC-68LABrT
  WARNING 04: minimum elevation drop used for Conduit MC-69EBdBr
  WARNING 04: minimum elevation drop used for Conduit MC-69EBdT
  WARNING 04: minimum elevation drop used for Conduit MC-71MLnT
  WARNING 04: minimum elevation drop used for Conduit MC-71OutT
  WARNING 04: minimum elevation drop used for Conduit MC-73natT
  WARNING 04: minimum elevation drop used for Conduit MC-75BAvBr
  WARNING 04: minimum elevation drop used for Conduit MC-75BAvT
  WARNING 04: minimum elevation drop used for Conduit MC-77100B
  WARNING 04: minimum elevation drop used for Conduit MC-77100T
  WARNING 04: minimum elevation drop used for Conduit MC-77xsec1
  WARNING 04: minimum elevation drop used for Conduit MC-77xsec2
  WARNING 04: minimum elevation drop used for Conduit MC-8150T
  WARNING 04: minimum elevation drop used for Conduit MC-81BAvB
  WARNING 04: minimum elevation drop used for Conduit MC-81BAvT
  WARNING 04: minimum elevation drop used for Conduit MC-81nat
  WARNING 04: minimum elevation drop used for Conduit MC-82WAvT
  WARNING 04: minimum elevation drop used for Conduit MC-83nat
  WARNING 04: minimum elevation drop used for Conduit MC-85SS1
  WARNING 04: minimum elevation drop used for Conduit MC-86PBrT
  WARNING 04: minimum elevation drop used for Conduit MC-8754Br
  WARNING 04: minimum elevation drop used for Conduit MC-8754T
  WARNING 04: minimum elevation drop used for Conduit MC-8856Br
  WARNING 04: minimum elevation drop used for Conduit MC-8856T
  WARNING 04: minimum elevation drop used for Conduit MC-90nat
  WARNING 04: minimum elevation drop used for Conduit MC-9158T
  WARNING 04: minimum elevation drop used for Conduit MC-92FAvT
  WARNING 04: minimum elevation drop used for Conduit MC-92SS3
  WARNING 04: minimum elevation drop used for Conduit MC-93XAvB
  WARNING 04: minimum elevation drop used for Conduit MC-94UAvB
  WARNING 04: minimum elevation drop used for Conduit MC-94UAvT
  WARNING 04: minimum elevation drop used for Conduit MC-96PAvB
  WARNING 04: minimum elevation drop used for Conduit MC-96PAvT
  WARNING 04: minimum elevation drop used for Conduit MC-98LAvT
  WARNING 04: minimum elevation drop used for Conduit MC-98MFtB
  WARNING 04: minimum elevation drop used for Conduit MC-98MFtT
  WARNING 04: minimum elevation drop used for Conduit MC-98NFtB
  WARNING 04: minimum elevation drop used for Conduit MC-98NFtT
  WARNING 04: minimum elevation drop used for Conduit MC-98xsec7
  WARNING 04: minimum elevation drop used for Conduit MC-99HAvT
  WARNING 04: minimum elevation drop used for Conduit MC-99JAvO
  WARNING 04: minimum elevation drop used for Conduit MC-99JAvT
  WARNING 04: minimum elevation drop used for Conduit MC-99xsec4
  WARNING 02: maximum depth increased for Node MC-126FN3
  WARNING 02: maximum depth increased for Node MC-126FN4
  WARNING 02: maximum depth increased for Node MC-130FN
  WARNING 02: maximum depth increased for Node MC-131
  WARNING 02: maximum depth increased for Node MC-131FN1
  WARNING 02: maximum depth increased for Node MC-132FN1
  WARNING 02: maximum depth increased for Node MC-133FN1
  WARNING 02: maximum depth increased for Node MC-133FN2
  WARNING 02: maximum depth increased for Node MC-136FN13
  WARNING 02: maximum depth increased for Node MC-136FN15
  WARNING 02: maximum depth increased for Node MC-136FN16
  WARNING 02: maximum depth increased for Node MC-136FN3
  WARNING 02: maximum depth increased for Node MC-136FN9
  WARNING 02: maximum depth increased for Node MC-137FN1
  WARNING 02: maximum depth increased for Node MC-138
  WARNING 02: maximum depth increased for Node MC-138FN3
  WARNING 02: maximum depth increased for Node MC-141FN3
  WARNING 02: maximum depth increased for Node MC-141FN4
  WARNING 02: maximum depth increased for Node MC-148FN2
  WARNING 02: maximum depth increased for Node MC-148FN3
  WARNING 02: maximum depth increased for Node MC-151
  WARNING 02: maximum depth increased for Node MC-154FN4
  WARNING 02: maximum depth increased for Node MC-159FN1
  WARNING 02: maximum depth increased for Node MC-168
  WARNING 02: maximum depth increased for Node MC-168FN2
  WARNING 02: maximum depth increased for Node MC-168FN4
  WARNING 02: maximum depth increased for Node MC-168FN5
  WARNING 02: maximum depth increased for Node MC-168FN7
  WARNING 02: maximum depth increased for Node MC-169FN1
  WARNING 02: maximum depth increased for Node MC-169FN3
  WARNING 02: maximum depth increased for Node MC-169FN4
  WARNING 02: maximum depth increased for Node MC-173FN1
  WARNING 02: maximum depth increased for Node MC-173FN3
  WARNING 02: maximum depth increased for Node MC-178
  WARNING 02: maximum depth increased for Node MC-178FN2
  WARNING 02: maximum depth increased for Node MC-17FN10
  WARNING 02: maximum depth increased for Node MC-17FN11
  WARNING 02: maximum depth increased for Node MC-17FN12
  WARNING 02: maximum depth increased for Node MC-17FN13
  WARNING 02: maximum depth increased for Node MC-17FN9
  WARNING 02: maximum depth increased for Node MC-181FN3
  WARNING 02: maximum depth increased for Node MC-181FN5
  WARNING 02: maximum depth increased for Node MC-182FN1
  WARNING 02: maximum depth increased for Node MC-182FN2
  WARNING 02: maximum depth increased for Node MC-184FN10
  WARNING 02: maximum depth increased for Node MC-184FN2
  WARNING 02: maximum depth increased for Node MC-184FN3
  WARNING 02: maximum depth increased for Node MC-184FN4
  WARNING 02: maximum depth increased for Node MC-184FN5
  WARNING 02: maximum depth increased for Node MC-184FN6
  WARNING 02: maximum depth increased for Node MC-184FN7
  WARNING 02: maximum depth increased for Node MC-28FN0
  WARNING 02: maximum depth increased for Node MC-28FN1
  WARNING 02: maximum depth increased for Node MC-28FN11
  WARNING 02: maximum depth increased for Node MC-28FN12
  WARNING 02: maximum depth increased for Node MC-28FN14
  WARNING 02: maximum depth increased for Node MC-28FN15
  WARNING 02: maximum depth increased for Node MC-28FN7
  WARNING 02: maximum depth increased for Node MC-28FN9
  WARNING 02: maximum depth increased for Node MC-32FN1
  WARNING 02: maximum depth increased for Node MC-32FN2
  WARNING 02: maximum depth increased for Node MC-37FN3
  WARNING 02: maximum depth increased for Node MC-37FN4
  WARNING 02: maximum depth increased for Node MC-37FN5
  WARNING 02: maximum depth increased for Node MC-41FN1
  WARNING 02: maximum depth increased for Node MC-41FN2
  WARNING 02: maximum depth increased for Node MC-41FN3
  WARNING 02: maximum depth increased for Node MC-56
  WARNING 02: maximum depth increased for Node MC-56FN10
  WARNING 02: maximum depth increased for Node MC-56FN11
  WARNING 02: maximum depth increased for Node MC-56FN13
  WARNING 02: maximum depth increased for Node MC-56FN14
  WARNING 02: maximum depth increased for Node MC-56FN4
  WARNING 02: maximum depth increased for Node MC-56FN5
  WARNING 02: maximum depth increased for Node MC-56FN6
  WARNING 02: maximum depth increased for Node MC-56FN7
  WARNING 02: maximum depth increased for Node MC-56FN9
  WARNING 02: maximum depth increased for Node MC-57FN1
  WARNING 02: maximum depth increased for Node MC-58FN1
  WARNING 02: maximum depth increased for Node MC-62FN15
  WARNING 02: maximum depth increased for Node MC-65FN1
  WARNING 02: maximum depth increased for Node MC-65FN2
  WARNING 02: maximum depth increased for Node MC-76FN3
  WARNING 02: maximum depth increased for Node MC-76FN4
  WARNING 02: maximum depth increased for Node MC-77FN4
  WARNING 02: maximum depth increased for Node MC-77FN7
  WARNING 02: maximum depth increased for Node MC-86FN4
  WARNING 02: maximum depth increased for Node MC-86FN5
  WARNING 02: maximum depth increased for Node MC-87FN1
  WARNING 02: maximum depth increased for Node MC-88FN1
  WARNING 02: maximum depth increased for Node MC-92FN2
  WARNING 02: maximum depth increased for Node MC-93FN6
  WARNING 02: maximum depth increased for Node MC-94FN2
  WARNING 02: maximum depth increased for Node MC-94FN3
  WARNING 02: maximum depth increased for Node MC-96FN1
  WARNING 02: maximum depth increased for Node MC-96FN3
  WARNING 02: maximum depth increased for Node MC-96FN4
  WARNING 02: maximum depth increased for Node MC-96FN6
  WARNING 02: maximum depth increased for Node MC-98FN1
  WARNING 02: maximum depth increased for Node MC-98FN10
  WARNING 02: maximum depth increased for Node MC-98FN7
  WARNING 02: maximum depth increased for Node MC-99
  WARNING 02: maximum depth increased for Node MC-99FN6
  
  *************
  Element Count
  *************
  Number of rain gages ...... 2
  Number of subcatchments ... 173
  Number of nodes ........... 568
  Number of links ........... 724
  Number of pollutants ...... 0
  Number of land uses ....... 0
  
  
  ****************
  Raingage Summary
  ****************
                                                      Data       Recording
  Name                 Data Source                    Type       Interval 
  ------------------------------------------------------------------------
  PMA01                PMA01                          INTENSITY   15 min.
  PMP06                PMP06                          INTENSITY   15 min.
  
  
  ********************
  Subcatchment Summary
  ********************
  Name                       Area     Width   %Imperv    %Slope Rain Gage            Outlet              
  -----------------------------------------------------------------------------------------------------------
  MC-100_1                 520.50    630.00     35.70    0.1000 PMA01                MC-100              
  MC-101_1                 581.90    828.00     50.30    0.1000 PMA01                MC-101              
  MC-102_1                 170.20    363.00     44.40    0.1000 PMA01                MC-102              
  MC-103_1                 301.50    663.00     50.90    0.1000 PMP06                MC-103              
  MC-104_1                 141.90    368.00     47.40    0.1000 PMP06                MC-104              
  MC-105_1                 231.80    526.00     39.10    0.2000 PMP06                MC-105              
  MC-106_1                  51.30    233.00     40.80    0.4000 PMP06                MC-106              
  MC-107_1                 321.90    974.00     55.50    0.3000 PMP06                MC-107              
  MC-108_1                  72.00    308.00     36.50    0.2000 PMP06                MC-108              
  MC-109_1                 292.80    472.00     74.80    0.2000 PMP06                MC-109              
  MC-110_1                 464.00    591.00     46.50    0.0100 PMP06                MC-110              
  MC-111_1                  68.10    141.00     89.70    0.2000 PMP06                MC-111              
  MC-112_1                 133.60    255.00     54.70    0.1000 PMP06                MC-112              
  MC-113_1                  75.40    228.00     63.40    0.3000 PMP06                MC-113              
  MC-114_1                 179.20    406.00     59.60    0.2000 PMP06                MC-114              
  MC-115_1                 365.20    663.00     73.90    0.0100 PMP06                MC-115              
  MC-116_1                 178.70    447.00     25.10    0.3000 PMP06                MC-116              
  MC-117_1                 177.70    391.00     67.00    0.3000 PMP06                MC-117              
  MC-118_1                  55.00    182.00     56.10    0.2000 PMP06                MC-118              
  MC-119_1                 107.90    326.00     26.00    0.3000 PMP06                MC-119              
  MC-120_1                 245.90    496.00     59.30    0.1000 PMP06                MC-120              
  MC-121_1                 591.60    810.00     49.90    0.2000 PMP06                MC-121              
  MC-122_1                  90.20    345.00     62.80    0.2000 PMP06                MC-122              
  MC-123_1                 241.20    417.00     55.60    0.1000 PMP06                MC-123              
  MC-124_1                 463.00   1201.00     36.10    0.2000 PMP06                MC-124              
  MC-125_1                 417.50    532.00     40.40    0.1000 PMP06                MC-125              
  MC-126_1                 648.90    683.00     75.20    0.1000 PMP06                MC-126              
  MC-127_1                 206.00    365.00     17.10    0.2000 PMP06                MC-127              
  MC-128_1                 143.00    371.00     40.80    0.2000 PMP06                MC-128              
  MC-129_1                 312.90    355.00     43.10    0.1000 PMP06                MC-129              
  MC-130_1                 833.50   1441.00     65.00    0.2000 PMP06                MC-130              
  MC-131_1                 105.00    381.00     39.70    0.7000 PMP06                MC-131              
  MC-132_1                 126.00    381.00     38.80    0.5000 PMP06                MC-132              
  MC-133_1                  34.00    190.00     40.70    0.5000 PMP06                MC-133              
  MC-134_1                  52.80    480.00     60.80    0.4000 PMP06                MC-134              
  MC-135_1                 173.60    600.00     44.80    0.4000 PMP06                MC-135              
  MC-136_1                 108.20    302.00     31.50    0.5000 PMP06                MC-136              
  MC-137_1                  45.60    301.00     35.10    1.5000 PMP06                MC-137              
  MC-138_1                  19.00    125.00     22.50    0.5000 PMP06                MC-138              
  MC-139_1                  91.90    334.00     37.20    0.2000 PMP06                MC-139              
  MC-140_1                 200.00   1127.00     42.80    0.1000 PMP06                MC-140              
  MC-141_1                  40.50    210.00     34.80    0.5000 PMP06                MC-141              
  MC-142_1                 180.80    398.00     67.50    0.3000 PMP06                MC-142              
  MC-143_1                 113.70    550.00     51.60    0.3000 PMP06                MC-143              
  MC-144_1                 448.90    639.00     48.00    0.2000 PMP06                MC-144              
  MC-145_1                  44.50    132.00     16.50    0.1000 PMP06                MC-145              
  MC-146_1                  88.30    534.00     37.90    0.6000 PMP06                MC-146              
  MC-147_1                 313.10    710.00     37.10    0.1000 PMP06                MC-147              
  MC-148_1                  19.90    103.00     29.60    0.2000 PMP06                MC-148              
  MC-149_1                  45.00    138.00     29.70    0.2000 PMA01                MC-149              
  MC-150_1                  54.30    246.00     38.00    0.4000 PMP06                MC-150              
  MC-151_1                  88.20    246.00     33.00    0.3000 PMP06                MC-151              
  MC-152_1                 116.00    401.00     32.60    0.2000 PMP06                MC-152              
  MC-153_1                  20.10    122.00     49.30    0.3000 PMP06                MC-153              
  MC-154_1                  35.80    200.00     25.80    0.6000 PMP06                MC-154              
  MC-155_1                 434.80    686.00     39.80    0.1000 PMP06                MC-155              
  MC-156_1                 148.30    431.00     46.00    0.1000 PMP06                MC-156              
  MC-157_1                  64.70    181.00     38.20    0.1000 PMP06                MC-157              
  MC-158_1                 548.40   1422.00     49.60    0.2000 PMP06                MC-158              
  MC-159_1                 484.20    488.00     57.00    0.1000 PMP06                MC-159              
  MC-160_1                 158.90    320.00     45.20    0.1000 PMP06                MC-160              
  MC-161_1                  85.20    269.00     38.00    0.1000 PMP06                MC-161              
  MC-162_1                 203.20    388.00     36.70    0.2000 PMP06                MC-162              
  MC-163_1                 112.80    328.00     36.90    0.1000 PMP06                MC-163              
  MC-164_1                 165.40    429.00     38.50    0.1000 PMP06                MC-164              
  MC-165_1                  24.30    126.00     33.90    0.4000 PMP06                MC-165              
  MC-166_1                  55.00    190.00     37.70    0.2000 PMP06                MC-166              
  MC-167_1                 347.50    561.00     66.70    0.1000 PMP06                MC-167              
  MC-168_1                  13.30     81.00     14.60    0.1000 PMP06                MC-168              
  MC-169_1                  57.70    116.00     31.60    0.1000 PMP06                MC-169              
  MC-17_1                  156.30    242.00     25.10    0.1000 PMA01                MC-17               
  MC-170_1                 892.60    720.00     40.90    0.1000 PMP06                MC-170              
  MC-171_1                  95.00    276.00     38.30    0.1000 PMP06                MC-171              
  MC-172_1                 207.10    654.00     29.80    0.2000 PMP06                MC-172              
  MC-173_1                   8.90     92.00     28.00    0.2000 PMP06                MC-173              
  MC-174_1                  22.30    125.00     34.20    0.4000 PMP06                MC-174              
  MC-175_1                   6.60     53.00     32.40    0.6000 PMP06                MC-175              
  MC-176_1                 228.20    473.00     40.80    0.1000 PMP06                MC-176              
  MC-177_1                  49.40    175.00     37.50    0.0100 PMP06                MC-177              
  MC-178_1                  30.90    204.00     30.80    0.2000 PMP06                MC-178              
  MC-179_1                 108.50    358.00     38.30    0.1000 PMP06                MC-179              
  MC-18_1                   59.00     14.00     33.90    0.0300 PMA01                MC-18               
  MC-180_1                  69.90    145.00     33.10    0.1000 PMP06                MC-180              
  MC-181_1                  44.20     46.00     35.40    0.0700 PMP06                MC-181              
  MC-182_1                  25.10     85.00     42.40    0.1200 PMP06                MC-182              
  MC-183_1                 114.90     87.00     44.30    0.0600 PMP06                MC-183              
  MC-184_1                  75.30     54.00     30.80    0.1900 PMP06                MC-184              
  MC-19_1                   97.20     20.00     40.20    0.0300 PMA01                MC-19               
  MC-20_1                  336.50     29.75     40.30    0.0200 PMA01                MC-20               
  MC-21_1                  455.90     35.75     54.70    0.0100 PMA01                MC-21               
  MC-22_1                  186.50     26.50     41.50    0.0300 PMA01                MC-22               
  MC-23_1                  220.40     29.25     40.90    0.0200 PMA01                MC-23               
  MC-24_1                   60.60     18.25     40.50    0.0300 PMA01                MC-24               
  MC-25_1                   84.60     13.75     29.60    0.0200 PMA01                MC-25               
  MC-26_1                  184.70     22.00     36.30    0.0200 PMA01                MC-26               
  MC-27_1                   81.20     18.75     23.80    0.0500 PMA01                MC-27               
  MC-28_1                  139.90    190.00     34.50    0.1200 PMA01                MC-28               
  MC-29_1                   72.20     13.50     38.30    0.0300 PMA01                MC-29               
  MC-30_1                  184.20     27.00     39.30    0.0400 PMA01                MC-30               
  MC-31_1                   29.80      9.50     58.10    0.0100 PMA01                MC-31               
  MC-32_1                   26.30      8.00     66.30    0.0200 PMA01                MC-32               
  MC-33_1                  103.40     17.00     27.20    0.0200 PMA01                MC-33               
  MC-34_1                  136.10     24.00     58.30    0.0200 PMA01                MC-34               
  MC-35_1                  311.20     25.00     47.30    0.0200 PMA01                MC-35               
  MC-36_1                   79.90     15.00     32.80    0.0300 PMA01                MC-36               
  MC-37_1                   72.40     94.00     43.20    0.1200 PMA01                MC-37               
  MC-38_1                   87.60     20.75     40.50    0.0400 PMA01                MC-38               
  MC-39_1                  152.20     22.00     64.10    0.0200 PMA01                MC-39               
  MC-40_1                   59.00     14.25     20.70    0.0400 PMA01                MC-40               
  MC-41_1                  234.02    184.00     62.60    0.0600 PMA01                MC-41               
  MC-42_1                  148.90     19.00     17.80    0.0200 PMA01                MC-42               
  MC-43_1                  149.80    144.00     44.50    0.1400 PMA01                MC-43               
  MC-44_1                   61.20     14.00     53.90    0.0200 PMA01                MC-44               
  MC-45_1                  136.40     22.75     41.70    0.0200 PMA01                MC-45               
  MC-46_1                  175.90     23.50     41.40    0.0200 PMA01                MC-46               
  MC-47_1                   62.40     15.00     42.70    0.0300 PMA01                MC-47               
  MC-48_1                  193.00     32.75     50.20    0.0200 PMA01                MC-48               
  MC-49_1                  174.70     23.75     51.60    0.0100 PMA01                MC-49               
  MC-50_1                   23.60     13.25     43.50    0.0300 PMA01                MC-50               
  MC-51_1                  155.00     22.00     44.40    0.0100 PMA01                MC-51               
  MC-52_1                   47.50     16.25     41.00    0.0100 PMA01                MC-52               
  MC-53_1                  120.90    140.00     41.30    0.0600 PMA01                MC-53               
  MC-54_1                   31.00      9.75     33.50    0.0200 PMA01                MC-54               
  MC-55_1                  139.90     24.75     39.80    0.0200 PMA01                MC-55               
  MC-56_1                   45.70     15.00     67.00    0.0200 PMA01                MC-56               
  MC-57_1                   54.40     11.75     90.70    0.0200 PMA01                MC-57               
  MC-58_1                  153.90     18.50     55.10    0.0100 PMA01                MC-58               
  MC-59_1                  228.80     34.25     54.00    0.0100 PMA01                MC-59               
  MC-60_1                  122.50    130.00     69.70    0.0600 PMA01                MC-60               
  MC-61_1                   36.30     14.50     86.10    0.0200 PMA01                MC-61               
  MC-62_1                   88.50    172.00     43.10    0.1600 PMA01                MC-62               
  MC-63_1                   52.41     12.50     44.40    0.0200 PMA01                MC-63               
  MC-64_1                  235.10     22.75     53.90    0.0100 PMA01                MC-64               
  MC-65_1                   35.80      8.75     79.40    0.0100 PMA01                MC-65               
  MC-66_1                  284.10     32.75     41.00    0.0100 PMA01                MC-66               
  MC-67_1                  175.90     31.00     64.60    0.0100 PMA01                MC-67               
  MC-68FN_1                188.10    174.00     67.70    0.0400 PMA01                MC-68FN1            
  MC-69_1                  125.50    148.00     66.00    0.0800 PMA01                MC-69               
  MC-71_1                   72.50     15.25     52.80    0.0100 PMP06                MC-71               
  MC-72_1                   62.50     12.50     38.40    0.0300 PMP06                MC-72               
  MC-73_1                   49.40     14.50     37.10    0.0700 PMP06                MC-73               
  MC-74_1                   69.30     14.00     41.20    0.0300 PMP06                MC-74               
  MC-75_1                  439.30    244.00     35.50    0.0800 PMP06                MC-75               
  MC-75_2                   70.60    106.00     35.40    0.1200 PMP06                MC-75               
  MC-76FN_1                 95.50     13.50     42.90    0.0400 PMP06                MC-76FN1            
  MC-77_1                   70.30    166.00     48.70    0.1600 PMP06                MC-77               
  MC-78_1                  152.90     19.50     43.30    0.0100 PMP06                MC-78               
  MC-79_1                  166.90     21.75     62.30    0.0100 PMP06                MC-79               
  MC-80_1                   40.60     10.25     38.00    0.0100 PMP06                MC-80               
  MC-81_1                  137.30    152.00     47.50    0.0600 PMP06                MC-81               
  MC-82_1                  134.60    244.00      9.40    0.1000 PMP06                MC-82               
  MC-83_1                  108.10    462.00     41.40    0.2000 PMP06                MC-83               
  MC-84_1                   72.50    292.00     39.80    0.1000 PMP06                MC-84               
  MC-85_1                   33.10    160.00     80.40    0.1000 PMP06                MC-85               
  MC-86_1                   88.00    278.00     40.40    0.2000 PMP06                MC-86               
  MC-87_1                   41.30    333.00     35.00    0.5000 PMP06                MC-87               
  MC-88_1                   38.00    184.00     47.70    0.3000 PMP06                MC-88               
  MC-89_1                  265.30    642.00     39.60    0.3000 PMP06                MC-89               
  MC-90_1                  153.40    474.00     40.30    0.1000 PMP06                MC-90               
  MC-91_1                  114.60    416.00     33.60    0.2000 PMP06                MC-91               
  MC-92_1                  101.00    229.00     39.10    0.2000 PMP06                MC-92               
  MC-93_1                  226.10    400.00     39.20    0.2000 PMP06                MC-93               
  MC-94_1                   44.80    250.00     36.90    0.5000 PMP06                MC-94               
  MC-95_1                  357.20    552.00     38.50    0.1000 PMP06                MC-95               
  MC-96_1                   25.50    115.00     31.70    0.5000 PMP06                MC-96               
  MC-97_1                  233.60    506.00     39.20    0.2000 PMP06                MC-97               
  MC-98_1                   67.10    212.00     35.00    0.4000 PMP06                MC-98               
  MC-99_1                   66.50    268.00     37.00    0.3000 PMP06                MC-99               
  MR-1_1                   322.00    899.00     41.00    0.0300 PMP06                MR-1                
  MR-2_1                   628.00    670.00     44.20    0.0200 PMP06                MR-2                
  MR-3_1                   332.00    463.00     38.00    0.0300 PMP06                MR-3                
  WL-1_1                   440.00    626.00     46.40    0.2000 PMP06                WL-1                
  WL-3_1                   570.00    686.00     59.50    0.2000 PMP06                WL-3                
  
  
  ************
  Node Summary
  ************
                                           Invert      Max.    Ponded    External
  Name                 Type                 Elev.     Depth      Area    Inflow  
  -------------------------------------------------------------------------------
  MC-100FN2            JUNCTION            873.30     21.50       0.0
  MC-100FN3            JUNCTION            886.50      3.70       0.0
  MC-100FN4            JUNCTION            885.30      7.50       0.0
  MC-100MH1            JUNCTION            870.30     12.00       0.0
  MC-101MH1            JUNCTION            875.68      3.90       0.0
  MC-101MH2            JUNCTION            874.60     14.70       0.0
  MC-101MH3            JUNCTION            873.91      6.50       0.0
  MC-102MH1            JUNCTION            873.26      2.54       0.0
  MC-102MH2            JUNCTION            873.30      3.00       0.0
  MC-102MH3            JUNCTION            871.98      6.62       0.0
  MC-102MH4            JUNCTION            873.05      8.83       0.0
  MC-102MH5            JUNCTION            870.35     13.45       0.0
  MC-103               JUNCTION            869.83      5.47       0.0
  MC-104FN1            JUNCTION            868.30      8.00       0.0
  MC-104FN2            JUNCTION            868.30      8.00       0.0
  MC-104FN3            JUNCTION            860.80      5.50       0.0
  MC-104FN4            JUNCTION            860.20      6.10       0.0
  MC-104FN5            JUNCTION            859.98      6.12       0.0
  MC-104FN6            JUNCTION            858.80      7.80       0.0
  MC-104FN7            JUNCTION            852.30     12.70       0.0
  MC-104MH1            JUNCTION            866.30      4.50       0.0
  MC-104MH2            JUNCTION            862.82      7.28       0.0
  MC-104MH3            JUNCTION            861.30      4.90       0.0
  MC-104MH4            JUNCTION            857.14      8.96       0.0
  MC-104MH5            JUNCTION            854.03     10.97       0.0
  MC-105MH1            JUNCTION            850.30      6.00       0.0
  MC-105MH2            JUNCTION            848.80      4.00       0.0
  MC-105MH3            JUNCTION            848.80      4.00       0.0
  MC-105MH4            JUNCTION            848.80      4.00       0.0
  MC-106MH1            JUNCTION            855.30      5.20       0.0
  MC-106MH2            JUNCTION            854.30      7.50       0.0
  MC-106MH3            JUNCTION            853.43      9.07       0.0
  MC-107               JUNCTION            857.50      7.50       0.0
  MC-110               JUNCTION            876.00     10.00       0.0
  MC-110MH1            JUNCTION            871.30     11.50       0.0
  MC-110MH2            JUNCTION            870.10     19.90       0.0
  MC-110MH3            JUNCTION            867.70     10.80       0.0
  MC-111               JUNCTION            873.97     13.83       0.0
  MC-112               JUNCTION            870.85     19.15       0.0
  MC-114               JUNCTION            869.70      9.10       0.0
  MC-115MH1            JUNCTION            869.30     17.00       0.0
  MC-115MH2            JUNCTION            868.26     14.74       0.0
  MC-115MH3            JUNCTION            866.70     15.10       0.0
  MC-116               JUNCTION            861.00      9.00       0.0
  MC-117               JUNCTION            857.50      7.80       0.0
  MC-118               JUNCTION            855.00     10.00       0.0
  MC-119               JUNCTION            854.30      8.70       0.0
  MC-119GC1            JUNCTION            852.16     10.84       0.0
  MC-120               JUNCTION            855.90     21.10       0.0
  MC-123               JUNCTION            851.70     24.30       0.0
  MC-124               JUNCTION            856.50     13.00       0.0
  MC-124MH1            JUNCTION            845.80     13.40       0.0
  MC-125FN1            JUNCTION            842.80      7.00       0.0
  MC-125Out            JUNCTION            842.80     11.00       0.0
  MC-125eof            JUNCTION            851.60      8.70       0.0
  MC-126FN1            JUNCTION            849.32     11.63       0.0
  MC-126FN2            JUNCTION            849.32     11.63       0.0
  MC-126FN3            JUNCTION            849.17     11.32       0.0
  MC-126FN4            JUNCTION            849.00     11.32       0.0
  MC-126FN5            JUNCTION            849.80     13.14       0.0
  MC-128               JUNCTION            864.70     29.30       0.0
  MC-128FN1            JUNCTION            846.50     19.50       0.0
  MC-129               JUNCTION            847.06     12.94       0.0
  MC-130FN             JUNCTION            844.00      8.57       0.0
  MC-131               JUNCTION            841.77      8.57       0.0
  MC-131FN1            JUNCTION            841.56      8.96       0.0
  MC-131FN2            JUNCTION            840.47     10.53       0.0
  MC-132               JUNCTION            835.62     14.38       0.0
  MC-132FN1            JUNCTION            835.50     14.50       0.0
  MC-132FN2            JUNCTION            835.20     13.20       0.0
  MC-132FN3            JUNCTION            835.91     14.38       0.0
  MC-132FN4            JUNCTION            835.91     14.53       0.0
  MC-132FN5            JUNCTION            835.50     14.53       0.0
  MC-132FN6            JUNCTION            834.61     15.39       0.0
  MC-132FN7            JUNCTION            834.80     15.39       0.0
  MC-133               JUNCTION            833.76     14.24       0.0
  MC-133FN1            JUNCTION            834.80     35.44       0.0
  MC-133FN2            JUNCTION            834.56     35.44       0.0
  MC-133FN3            JUNCTION            833.00     53.00       0.0
  MC-133FN4            JUNCTION            833.90     54.10       0.0
  MC-134               JUNCTION            850.20     28.10       0.0
  MC-135               JUNCTION            854.30      7.00       0.0
  MC-135FN1            JUNCTION            837.80     23.20       0.0
  MC-135FN2            JUNCTION            854.80     48.00       0.0
  MC-136               JUNCTION            829.80     48.50       0.0
  MC-136FN1            JUNCTION            833.90     44.00       0.0
  MC-136FN10           JUNCTION            830.00     16.00       0.0
  MC-136FN11           JUNCTION            829.50     48.50       0.0
  MC-136FN12           JUNCTION            829.80     50.70       0.0
  MC-136FN13           JUNCTION            829.20     33.20       0.0
  MC-136FN14           JUNCTION            829.40     13.60       0.0
  MC-136FN15           JUNCTION            829.00     13.50       0.0
  MC-136FN16           JUNCTION            829.00     13.50       0.0
  MC-136FN17           JUNCTION            828.00     14.30       0.0
  MC-136FN18           JUNCTION            828.20     14.00       0.0
  MC-136FN2            JUNCTION            833.30     44.00       0.0
  MC-136FN3            JUNCTION            831.40     16.60       0.0
  MC-136FN4            JUNCTION            831.20     16.80       0.0
  MC-136FN5            JUNCTION            832.00     17.00       0.0
  MC-136FN6            JUNCTION            832.00     15.40       0.0
  MC-136FN7            JUNCTION            831.30     14.70       0.0
  MC-136FN9            JUNCTION            831.30     14.70       0.0
  MC-137               JUNCTION            827.20     19.80       0.0
  MC-137FN1            JUNCTION            828.20     19.20       0.0
  MC-137FN2            JUNCTION            827.20     15.00       0.0
  MC-137FN3            JUNCTION            826.50     15.00       0.0
  MC-137FN8            JUNCTION            831.30     16.70       0.0
  MC-138               JUNCTION            822.80     19.40       0.0
  MC-138FN1            JUNCTION            825.80     15.70       0.0
  MC-138FN2            JUNCTION            824.30     15.70       0.0
  MC-138FN3            JUNCTION            822.80     19.40       0.0
  MC-139               JUNCTION            838.80      8.20       0.0
  MC-140               JUNCTION            822.70      7.30       0.0
  MC-141               JUNCTION            821.10     14.90       0.0
  MC-141FN1            JUNCTION            821.80     20.40       0.0
  MC-141FN2            JUNCTION            820.50     15.50       0.0
  MC-141FN3            JUNCTION            821.10     15.20       0.0
  MC-141FN4            JUNCTION            820.00     16.00       0.0
  MC-142               JUNCTION            834.43      6.57       0.0
  MC-143               JUNCTION            819.22     18.08       0.0
  MC-143FN1            JUNCTION            820.80     16.50       0.0
  MC-144MH1            JUNCTION            820.60     19.00       0.0
  MC-145               JUNCTION            820.79     13.51       0.0
  MC-145FN1            JUNCTION            819.30      5.00       0.0
  MC-146               JUNCTION            821.30      7.60       0.0
  MC-147               JUNCTION            820.80      6.20       0.0
  MC-148               JUNCTION            817.50     16.80       0.0
  MC-148FN1            JUNCTION            820.00     16.80       0.0
  MC-148FN2            JUNCTION            818.30     19.70       0.0
  MC-148FN3            JUNCTION            818.30     19.70       0.0
  MC-148FN4            JUNCTION            816.40     24.60       0.0
  MC-148FN5            JUNCTION            816.50     24.50       0.0
  MC-149               JUNCTION            816.00     15.50       0.0
  MC-149FN1            JUNCTION            816.50     18.50       0.0
  MC-149FN2            JUNCTION            816.50     15.50       0.0
  MC-149FN3            JUNCTION            815.50     16.50       0.0
  MC-149FN4            JUNCTION            814.90     17.10       0.0
  MC-149FN5            JUNCTION            813.50     18.50       0.0
  MC-150               JUNCTION            818.00      5.00       0.0
  MC-151               JUNCTION            814.50     15.50       0.0
  MC-151FN1            JUNCTION            813.50     19.50       0.0
  MC-151FN2            JUNCTION            814.50     18.50       0.0
  MC-151FN3            JUNCTION            814.80     15.90       0.0
  MC-152               JUNCTION            815.00     17.30       0.0
  MC-153               JUNCTION            811.00      7.30       0.0
  MC-154               JUNCTION            811.50     20.50       0.0
  MC-154FN1            JUNCTION            814.80     20.50       0.0
  MC-154FN2            JUNCTION            811.50     18.50       0.0
  MC-154FN3            JUNCTION            812.90     12.50       0.0
  MC-154FN4            JUNCTION            813.01     16.99       0.0
  MC-15548             JUNCTION            826.36     13.64       0.0
  MC-15562             JUNCTION            826.46      7.11       0.0
  MC-15562b            JUNCTION            824.55      6.00       0.0
  MC-15565t            JUNCTION            824.30     15.70       0.0
  MC-15566t            JUNCTION            824.32     12.28       0.0
  MC-155WYE            JUNCTION            821.80     14.45       0.0
  MC-156MH1            JUNCTION            823.70      8.60       0.0
  MC-156MH2            JUNCTION            823.40     12.93       0.0
  MC-157MH1            JUNCTION            828.57     10.73       0.0
  MC-157MH2            JUNCTION            828.78     20.52       0.0
  MC-157MH3            JUNCTION            827.30     18.00       0.0
  MC-158out            JUNCTION            818.09      6.91       0.0
  MC-159FN1            JUNCTION            814.90     10.10       0.0
  MC-160FN1            JUNCTION            814.40     11.60       0.0
  MC-162FN1            JUNCTION            811.80      5.60       0.0
  MC-163FN1            JUNCTION            811.00      4.10       0.0
  MC-164               JUNCTION            813.59      6.41       0.0
  MC-165               JUNCTION            816.70      3.30       0.0
  MC-166FN1            JUNCTION            811.20      3.90       0.0
  MC-168               JUNCTION            811.70     13.50       0.0
  MC-168FN1            JUNCTION            813.12     16.88       0.0
  MC-168FN2            JUNCTION            811.70     13.50       0.0
  MC-168FN3            JUNCTION            812.60      9.90       0.0
  MC-168FN4            JUNCTION            811.50     11.73       0.0
  MC-168FN5            JUNCTION            811.80     13.20       0.0
  MC-168FN6            JUNCTION            810.80     11.20       0.0
  MC-168FN7            JUNCTION            811.00     11.70       0.0
  MC-169               JUNCTION            815.00      7.00       0.0
  MC-169FN1            JUNCTION            811.00     11.70       0.0
  MC-169FN2            JUNCTION            811.20      8.80       0.0
  MC-169FN3            JUNCTION            811.20     10.20       0.0
  MC-169FN4            JUNCTION            810.60     10.20       0.0
  MC-169FN5            JUNCTION            810.60      9.50       0.0
  MC-169FN6            JUNCTION            810.00     10.00       0.0
  MC-169FN7            JUNCTION            810.00     10.00       0.0
  MC-169FN8            JUNCTION            810.50      9.50       0.0
  MC-169FN9            JUNCTION            810.50     14.50       0.0
  MC-17                JUNCTION            924.50     32.00       0.0
  MC-170               JUNCTION            810.11      9.89       0.0
  MC-170MH1            JUNCTION            808.21      9.79       0.0
  MC-170MH2            JUNCTION            808.00      9.00       0.0
  MC-171               JUNCTION            813.70      9.60       0.0
  MC-173               JUNCTION            807.05     22.95       0.0
  MC-173FN1            JUNCTION            809.34     13.95       0.0
  MC-173FN2            JUNCTION            809.13     12.87       0.0
  MC-173FN3            JUNCTION            810.79     19.21       0.0
  MC-174               JUNCTION            809.50     20.50       0.0
  MC-174FN1            JUNCTION            810.50     20.50       0.0
  MC-174FN2            JUNCTION            806.05     21.95       0.0
  MC-175               JUNCTION            810.62     21.00       0.0
  MC-175FN1            JUNCTION            806.05     21.95       0.0
  MC-175FN2            JUNCTION            809.50     18.50       0.0
  MC-176               JUNCTION            810.30     17.00       0.0
  MC-177               JUNCTION            810.86     14.44       0.0
  MC-178               JUNCTION            809.00     12.60       0.0
  MC-178FN1            JUNCTION            809.50     14.50       0.0
  MC-178FN2            JUNCTION            809.00     12.60       0.0
  MC-178WOMP           JUNCTION            807.90     12.10       0.0
  MC-179               JUNCTION            807.90     13.00       0.0
  MC-179FN1            JUNCTION            808.50     21.50       0.0
  MC-17FN1             JUNCTION            923.70     20.30       0.0    Yes
  MC-17FN10            JUNCTION            924.30     18.70       0.0
  MC-17FN11            JUNCTION            922.90     17.70       0.0
  MC-17FN12            JUNCTION            920.80     30.20       0.0
  MC-17FN13            JUNCTION            919.40     30.20       0.0
  MC-17FN2             JUNCTION            923.70     20.30       0.0
  MC-17FN3             JUNCTION            924.50     20.30       0.0
  MC-17FN4             JUNCTION            924.50     15.50       0.0
  MC-17FN5             JUNCTION            924.00     32.00       0.0
  MC-17FN6             JUNCTION            924.00     32.00       0.0
  MC-17FN7             JUNCTION            924.00     32.00       0.0
  MC-17FN8             JUNCTION            924.00     32.00       0.0
  MC-17FN9             JUNCTION            924.80     18.70       0.0
  MC-180               JUNCTION            807.33     22.67       0.0
  MC-180FN1            JUNCTION            808.50     21.50       0.0
  MC-180FN2            JUNCTION            806.87     19.13       0.0
  MC-180FN3            JUNCTION            807.18     18.82       0.0
  MC-180FN4            JUNCTION            805.26     19.74       0.0
  MC-181               JUNCTION            803.70     19.79       0.0
  MC-181FN1            JUNCTION            804.63     23.37       0.0
  MC-181FN2            JUNCTION            804.63     23.37       0.0
  MC-181FN3            JUNCTION            804.63     18.86       0.0
  MC-181FN4            JUNCTION            802.90     16.40       0.0
  MC-181FN5            JUNCTION            802.80     17.70       0.0
  MC-182               JUNCTION            802.30     20.00       0.0
  MC-182FN1            JUNCTION            802.80     19.80       0.0
  MC-182FN2            JUNCTION            802.80     19.80       0.0
  MC-182FN3            JUNCTION            802.30     20.00       0.0
  MC-182FN4            JUNCTION            801.20     17.00       0.0
  MC-182FN5            JUNCTION            801.20     17.00       0.0
  MC-182FN6            JUNCTION            798.20     15.80       0.0
  MC-182FN7            JUNCTION            798.20     15.80       0.0
  MC-183               JUNCTION            753.76      8.40       0.0
  MC-183FN1            JUNCTION            743.03      9.60       0.0
  MC-183FN2            JUNCTION            736.05      8.80       0.0
  MC-183FN3            JUNCTION            731.59      5.07       0.0
  MC-183FN4            JUNCTION            728.27      4.50       0.0
  MC-184               JUNCTION            731.00     19.00       0.0
  MC-184FN1            JUNCTION            741.20     68.80       0.0
  MC-184FN10           JUNCTION            693.30     36.70       0.0
  MC-184FN11           JUNCTION            689.60     40.40       0.0
  MC-184FN12           JUNCTION            689.60     40.40       0.0
  MC-184FN13           JUNCTION            689.60    110.40       0.0
  MC-184FN2            JUNCTION            740.20     24.70       0.0
  MC-184FN3            JUNCTION            731.20     24.70       0.0
  MC-184FN4            JUNCTION            719.10     14.70       0.0
  MC-184FN5            JUNCTION            719.10     11.70       0.0
  MC-184FN6            JUNCTION            710.80     29.20       0.0
  MC-184FN7            JUNCTION            710.80     29.20       0.0
  MC-184FN8            JUNCTION            699.00     40.00       0.0
  MC-184FN9            JUNCTION            699.00     32.00       0.0
  MC-28FN0             JUNCTION            919.40     18.60       0.0
  MC-28FN1             JUNCTION            917.20     15.60       0.0
  MC-28FN10            JUNCTION            914.20     15.80       0.0
  MC-28FN11            JUNCTION            914.30     17.40       0.0
  MC-28FN12            JUNCTION            913.70     17.40       0.0
  MC-28FN13            JUNCTION            913.10     26.90       0.0
  MC-28FN14            JUNCTION            912.50     34.10       0.0
  MC-28FN15            JUNCTION            912.40     34.10       0.0
  MC-28FN2             JUNCTION            916.80     15.20       0.0
  MC-28FN3             JUNCTION            916.50     14.80       0.0
  MC-28FN4             JUNCTION            916.50     13.50       0.0
  MC-28FN5             JUNCTION            916.50     13.50       0.0
  MC-28FN6             JUNCTION            916.50     13.50       0.0
  MC-28FN7             JUNCTION            914.80     15.20       0.0
  MC-28FN8             JUNCTION            915.00     21.00       0.0
  MC-28FN9             JUNCTION            914.80     15.20       0.0
  MC-31FN1             JUNCTION            909.60     20.40       0.0
  MC-31FN2             JUNCTION            909.60     20.40       0.0
  MC-31FN3             JUNCTION            909.10     33.40       0.0
  MC-31FN4             JUNCTION            908.40     33.40       0.0
  MC-32                JUNCTION            907.10     16.80       0.0
  MC-32FN1             JUNCTION            907.20     13.20       0.0
  MC-32FN2             JUNCTION            906.80     13.20       0.0
  MC-32FN3             JUNCTION            907.20     16.80       0.0
  MC-32FN4             JUNCTION            907.10     20.90       0.0
  MC-32FN5             JUNCTION            906.90     20.90       0.0
  MC-37                JUNCTION            904.60     36.90       0.0
  MC-37FN1             JUNCTION            906.90     15.00       0.0
  MC-37FN2             JUNCTION            906.30     15.00       0.0
  MC-37FN3             JUNCTION            905.90     12.70       0.0
  MC-37FN4             JUNCTION            904.80     36.70       0.0
  MC-37FN5             JUNCTION            904.80     36.70       0.0
  MC-40                JUNCTION            907.00      4.00       0.0
  MC-41FN1             JUNCTION            904.80     36.70       0.0
  MC-41FN2             JUNCTION            904.80     36.70       0.0
  MC-41FN3             JUNCTION            905.10     36.70       0.0
  MC-41FN4             JUNCTION            905.10     32.90       0.0
  MC-41FN5             JUNCTION            905.20     15.90       0.0
  MC-41FN6             JUNCTION            905.00     16.00       0.0
  MC-41FN7             JUNCTION            903.50     16.50       0.0
  MC-47FN1             JUNCTION            894.30      4.00       0.0
  MC-49FN1             JUNCTION            898.21     21.79       0.0
  MC-50FN1             JUNCTION            895.49     23.01       0.0
  MC-50MH5             JUNCTION            911.30      7.20       0.0
  MC-51                JUNCTION            900.00     20.00       0.0
  MC-51MH4             JUNCTION            894.90     22.30       0.0
  MC-55                JUNCTION            899.06      9.24       0.0
  MC-56                JUNCTION            896.20     18.70       0.0
  MC-56FN1             JUNCTION            898.20     17.80       0.0
  MC-56FN10            JUNCTION            897.70     12.70       0.0
  MC-56FN11            JUNCTION            896.30     18.70       0.0
  MC-56FN12            JUNCTION            895.80     18.20       0.0
  MC-56FN13            JUNCTION            895.60     15.70       0.0
  MC-56FN14            JUNCTION            895.60     12.80       0.0
  MC-56FN2             JUNCTION            898.20     17.80       0.0
  MC-56FN3             JUNCTION            897.80     17.80       0.0
  MC-56FN4             JUNCTION            897.80     17.10       0.0
  MC-56FN5             JUNCTION            896.80     23.20       0.0
  MC-56FN6             JUNCTION            897.90     23.20       0.0
  MC-56FN7             JUNCTION            897.90     22.10       0.0
  MC-56FN9             JUNCTION            897.90     12.70       0.0
  MC-57                JUNCTION            896.63     11.37       0.0
  MC-57FN1             JUNCTION            895.60     12.80       0.0
  MC-57FN2             JUNCTION            894.70     12.20       0.0
  MC-57FN3             JUNCTION            896.10     13.20       0.0
  MC-57FN4             JUNCTION            897.00     21.00       0.0
  MC-57FN5             JUNCTION            897.00     21.00       0.0
  MC-58                JUNCTION            903.42      4.33       0.0
  MC-58FN1             JUNCTION            897.00     21.00       0.0
  MC-58FN2             JUNCTION            895.50     18.80       0.0
  MC-61                JUNCTION            897.00     14.30       0.0
  MC-61FN              JUNCTION            896.60     16.16       0.0
  MC-61FN1             JUNCTION            896.50     16.16       0.0
  MC-61FN2             JUNCTION            897.00     13.90       0.0
  MC-62                JUNCTION            896.30     15.10       0.0
  MC-62FN1             JUNCTION            896.20     15.10       0.0
  MC-62FN10            JUNCTION            892.10     20.80       0.0
  MC-62FN11            JUNCTION            892.10     20.80       0.0
  MC-62FN12            JUNCTION            891.30     19.70       0.0
  MC-62FN13            JUNCTION            890.00     20.00       0.0
  MC-62FN14            JUNCTION            890.60     20.00       0.0
  MC-62FN15            JUNCTION            890.60     20.20       0.0
  MC-62FN2             JUNCTION            894.70     15.10       0.0
  MC-62FN3             JUNCTION            895.00     15.40       0.0
  MC-62FN4             JUNCTION            893.00     16.50       0.0
  MC-62FN5             JUNCTION            893.00     16.50       0.0
  MC-62FN6             JUNCTION            892.50     20.30       0.0
  MC-62FN7             JUNCTION            892.50     20.30       0.0
  MC-62FN8             JUNCTION            892.40     15.90       0.0
  MC-62FN9             JUNCTION            892.20     16.10       0.0
  MC-64                JUNCTION            908.30      4.00       0.0
  MC-64MH1             JUNCTION            895.00     14.00       0.0
  MC-65                JUNCTION            887.80     16.20       0.0
  MC-65FN1             JUNCTION            890.60     20.20       0.0
  MC-65FN2             JUNCTION            890.60     19.60       0.0
  MC-65FN3             JUNCTION            890.20     19.80       0.0
  MC-65FN4             JUNCTION            887.60     16.50       0.0
  MC-65FN5             JUNCTION            887.50     30.60       0.0
  MC-66FN1             JUNCTION            885.50      6.70       0.0
  MC-67FN2             JUNCTION            887.30     11.50       0.0
  MC-67FN3             JUNCTION            886.30      9.70       0.0
  MC-71MH1             JUNCTION            886.29    106.71       0.0
  MC-74                JUNCTION            884.90      8.10       0.0
  MC-76FN1             JUNCTION            883.40     13.98       0.0
  MC-76FN2             JUNCTION            883.70     13.30       0.0
  MC-76FN3             JUNCTION            881.80     15.10       0.0
  MC-76FN4             JUNCTION            881.30     15.20       0.0
  MC-76FN5             JUNCTION            882.80     17.20       0.0
  MC-77                JUNCTION            880.80     18.40       0.0
  MC-77FN1             JUNCTION            881.60     14.30       0.0
  MC-77FN2             JUNCTION            881.60     17.40       0.0
  MC-77FN3             JUNCTION            881.60     18.40       0.0
  MC-77FN4             JUNCTION            881.40     18.60       0.0
  MC-77FN5             JUNCTION            880.70     19.30       0.0
  MC-77FN6             JUNCTION            881.40     19.30       0.0
  MC-77FN7             JUNCTION            881.00     14.50       0.0
  MC-78FN1             JUNCTION            885.00     35.00       0.0
  MC-78FN2             JUNCTION            911.36      8.64       0.0
  MC-79                JUNCTION            896.38     13.62       0.0
  MC-80                JUNCTION            885.45      9.39       0.0
  MC-80MH1             JUNCTION            882.48     12.30       0.0
  MC-80MH2             JUNCTION            882.04     12.00       0.0
  MC-81FN1             JUNCTION            874.10     23.90       0.0
  MC-81FN2             JUNCTION            873.50     15.90       0.0
  MC-81FN3             JUNCTION            872.70     11.60       0.0
  MC-81FN4             JUNCTION            872.60     18.40       0.0
  MC-82                JUNCTION            869.60     37.50       0.0
  MC-82FN1             JUNCTION            871.70     19.30       0.0
  MC-82FN2             JUNCTION            869.10     10.90       0.0
  MC-82FN3             JUNCTION            867.50     12.50       0.0
  MC-82FN4             JUNCTION            866.20     13.80       0.0
  MC-84                JUNCTION            875.99     10.01       0.0
  MC-84MH1             JUNCTION            872.48     20.37       0.0
  MC-84MH2             JUNCTION            871.45     13.46       0.0
  MC-84MH3             JUNCTION            867.63     17.22       0.0
  MC-85                JUNCTION            866.14     14.36       0.0
  MC-85MH1             JUNCTION            866.14      8.20       0.0
  MC-85MH2             JUNCTION            862.48      7.52       0.0
  MC-86                JUNCTION            861.30     18.70       0.0
  MC-86FN1             JUNCTION            866.70     13.90       0.0
  MC-86FN2             JUNCTION            866.10     13.90       0.0
  MC-86FN3             JUNCTION            863.30     12.70       0.0
  MC-86FN4             JUNCTION            860.90     13.10       0.0
  MC-86FN5             JUNCTION            860.00     14.00       0.0
  MC-87                JUNCTION            860.30     14.50       0.0
  MC-87FN1             JUNCTION            859.50     14.50       0.0
  MC-87FN2             JUNCTION            859.00     15.00       0.0
  MC-87FN3             JUNCTION            861.80     15.00       0.0
  MC-87FN4             JUNCTION            858.40     15.60       0.0
  MC-88                JUNCTION            856.30     17.70       0.0
  MC-88FN1             JUNCTION            858.40     17.10       0.0
  MC-88FN2             JUNCTION            854.90     15.10       0.0
  MC-88FN3             JUNCTION            853.60     16.40       0.0
  MC-88FN5             JUNCTION            852.80     19.20       0.0
  MC-89                JUNCTION            862.60     15.40       0.0
  MC-89FN1             JUNCTION            856.00     22.00       0.0
  MC-89MH1             JUNCTION            861.45     16.55       0.0
  MC-92                JUNCTION            856.00      7.50       0.0
  MC-92FN1             JUNCTION            852.80     19.20       0.0
  MC-92FN2             JUNCTION            852.40     15.60       0.0
  MC-92FN3             JUNCTION            852.70     17.30       0.0
  MC-92FN4             JUNCTION            852.00     18.00       0.0
  MC-92FN5             JUNCTION            851.70     28.30       0.0
  MC-92MH2             JUNCTION            853.90      5.90       0.0
  MC-92MH3             JUNCTION            853.60      8.40       0.0
  MC-93                JUNCTION            850.80     15.20       0.0
  MC-93FN1             JUNCTION            851.30     28.70       0.0
  MC-93FN2             JUNCTION            853.00     17.90       0.0
  MC-93FN3             JUNCTION            851.00     15.00       0.0
  MC-93FN4             JUNCTION            850.90     15.10       0.0
  MC-93FN5             JUNCTION            849.70     14.30       0.0
  MC-93FN6             JUNCTION            849.30     14.70       0.0
  MC-93FN7             JUNCTION            847.70     16.30       0.0
  MC-93FN8             JUNCTION            845.80     18.20       0.0
  MC-93FN9             JUNCTION            845.70     18.30       0.0
  MC-94                JUNCTION            844.50     15.50       0.0
  MC-94FN1             JUNCTION            845.70     18.30       0.0
  MC-94FN2             JUNCTION            844.30     15.70       0.0
  MC-94FN3             JUNCTION            843.10     16.90       0.0
  MC-95                JUNCTION            845.84     14.46       0.0
  MC-95FN1             JUNCTION            843.93      8.37       0.0
  MC-96                JUNCTION            841.70     18.30       0.0
  MC-96FN1             JUNCTION            843.10     16.90       0.0
  MC-96FN2             JUNCTION            843.60     16.90       0.0
  MC-96FN3             JUNCTION            841.80     22.20       0.0
  MC-96FN4             JUNCTION            841.90     49.60       0.0
  MC-96FN5             JUNCTION            841.70     49.80       0.0
  MC-96FN6             JUNCTION            840.00     29.50       0.0
  MC-97                JUNCTION            838.90      6.40       0.0
  MC-97FN3             JUNCTION            841.60     25.40       0.0
  MC-98                JUNCTION            841.10     13.80       0.0
  MC-98FN1             JUNCTION            840.00     29.50       0.0
  MC-98FN10            JUNCTION            838.05     13.95       0.0
  MC-98FN11            JUNCTION            838.25     14.05       0.0
  MC-98FN12            JUNCTION            837.80     12.75       0.0
  MC-98FN14            JUNCTION            837.94     12.06       0.0
  MC-98FN2             JUNCTION            841.00     27.00       0.0
  MC-98FN4             JUNCTION            840.10     14.80       0.0
  MC-98FN5             JUNCTION            840.10     13.80       0.0
  MC-98FN6             JUNCTION            838.50     13.00       0.0
  MC-98FN7             JUNCTION            838.10     13.10       0.0
  MC-98FN8             JUNCTION            838.10     17.00       0.0
  MC-98FN9             JUNCTION            838.10     17.00       0.0
  MC-99                JUNCTION            837.24      9.10       0.0
  MC-99FN1             JUNCTION            837.89     12.11       0.0
  MC-99FN2             JUNCTION            836.00     16.00       0.0
  MC-99FN3             JUNCTION            836.90     15.10       0.0
  MC-99FN4             JUNCTION            836.20     12.80       0.0
  MC-99FN5             JUNCTION            836.20     12.80       0.0
  MC-99FN6             JUNCTION            835.90     14.10       0.0
  MR-1                 JUNCTION            760.30     69.70       0.0
  MR-2                 JUNCTION            735.00     95.00       0.0
  MR-3FN1              JUNCTION            840.00     20.00       0.0
  MC-158FN1            OUTFALL             816.50      0.00       0.0
  N4                   OUTFALL             823.00      3.00       0.0
  N13                  OUTFALL             835.00      2.00       0.0
  MissR                OUTFALL             689.60     40.40       0.0
  MC-18                STORAGE             963.00      5.00       0.0
  MC-20                STORAGE             929.80     33.20       0.0
  MC-19                STORAGE             936.00     16.00       0.0
  MC-23                STORAGE             926.00     12.00       0.0
  MC-25                STORAGE             916.40     21.60       0.0
  MC-21                STORAGE             933.80      6.20       0.0
  MC-28                STORAGE             912.32     27.68       0.0
  MC-24                STORAGE             921.70      4.30       0.0
  MC-31                STORAGE             907.35     10.65       0.0
  MC-41                STORAGE             899.70     20.30       0.0
  MC-43                STORAGE             895.10     24.90       0.0
  MC-53                STORAGE             895.00     25.00       0.0
  MC-44                STORAGE             936.00      6.00       0.0
  MC-45                STORAGE             930.90     11.10       0.0
  MC-46                STORAGE             899.00     41.00       0.0
  MC-47                STORAGE             894.30     34.70       0.0
  MC-48                STORAGE             893.60     36.40       0.0
  MC-52                STORAGE             894.00     36.00       0.0
  MC-49                STORAGE             898.00     52.00       0.0
  MC-22                STORAGE             929.00     11.00       0.0
  MC-30                STORAGE             908.40      9.60       0.0
  MC-33                STORAGE             907.00     13.00       0.0
  MC-34                STORAGE             910.00     12.00       0.0
  MC-26                STORAGE             928.00      8.00       0.0
  MC-27                STORAGE             916.00     24.00       0.0
  MC-35                STORAGE             905.60     12.40       0.0
  MC-36                STORAGE             909.90      8.10       0.0
  MC-42                STORAGE             900.30     17.70       0.0
  MC-38                STORAGE             916.70     29.30       0.0
  MC-39                STORAGE             900.00     46.00       0.0
  MC-54                STORAGE             897.90     15.60       0.0
  MC-60                STORAGE             895.50     17.26       0.0
  MC-68FN1             STORAGE             883.70     30.00       0.0
  MC-69                STORAGE             883.40     16.60       0.0
  MC-81                STORAGE             881.00     17.00       0.0
  MC-59                STORAGE             904.00     26.00       0.0
  MC-66                STORAGE             886.30      7.70       0.0
  MC-63                STORAGE             910.00      5.00       0.0
  MC-71                STORAGE             887.00    107.00       0.0
  MC-78                STORAGE             885.00     25.00       0.0
  MC-50                STORAGE             895.49     54.51       0.0
  MC-75                STORAGE             881.00    113.00       0.0
  MC-72                STORAGE             880.00     12.00       0.0
  MC-73                STORAGE             888.00      6.00       0.0
  MC-67                STORAGE             880.80     14.20       0.0
  MC-29                STORAGE             909.60     20.40       0.0
  MC-100               STORAGE             873.30     15.70       0.0
  MC-101               STORAGE             875.78     14.22       0.0
  MC-102               STORAGE             873.41     16.59       0.0
  MC-104               STORAGE             868.30      8.00       0.0
  MC-105               STORAGE             846.30     14.00       0.0
  MC-109               STORAGE             845.00     20.00       0.0
  MC-121               STORAGE             844.00     16.00       0.0
  MC-126               STORAGE             844.00     16.00       0.0
  MC-127               STORAGE             848.00     12.00       0.0
  MC-130               STORAGE             837.00     23.00       0.0
  MC-122               STORAGE             845.00    115.00       0.0
  MC-108               STORAGE             845.00     20.00       0.0
  MC-125               STORAGE             844.30     16.00       0.0
  MC-115               STORAGE             867.30     17.70       0.0
  MC-90                STORAGE             852.00     12.00       0.0
  MC-91                STORAGE             855.00      9.00       0.0
  MC-83                STORAGE             870.00     16.00       0.0
  MC-104Det            STORAGE             864.30     13.80       0.0
  MC-105P2             STORAGE             850.30     10.00       0.0
  MC-105P3             STORAGE             850.30     10.00       0.0
  MC-106               STORAGE             850.00     14.00       0.0
  MC-126MH1            STORAGE             846.39     12.86       0.0
[...]
  MC-63KCiFM              1.00   1.00  0.00  0.00  0.00  0.00  0.00  0.00  0.00  0.00
  MC-63KCiT               2.07   1.00  0.00  0.00  0.00  0.00  0.00  0.00  0.00  0.00
  MC-64PRdC1              1.00   1.00  0.00  0.00  0.00  0.00  0.00  0.00  0.00  0.00
  MC-64PRdC2              1.00   1.00  0.00  0.00  0.00  0.00  0.00  0.00  0.00  0.00
  MC-65MRdBC              3.42   0.14  0.00  0.00  0.00  0.00  0.00  0.86  0.00  0.00
  MC-65MRdBL              2.59   1.00  0.00  0.00  0.00  0.00  0.00  0.00  0.00  0.00
  MC-65MRdBR              2.75   0.14  0.00  0.00  0.00  0.00  0.00  0.86  0.00  0.00
  MC-65MRdT               1.48   1.00  0.00  0.00  0.00  0.00  0.00  0.00  0.00  0.00
  MC-65xsec1             19.51   0.14  0.00  0.00  0.86  0.00  0.00  0.00  0.00  0.00
  MC-65xsec2              9.27   0.14  0.00  0.00  0.86  0.00  0.00  0.00  0.00  0.00
  MC-65xsec3              1.72   0.14  0.00  0.00  0.86  0.00  0.00  0.00  0.85  0.00
  MC-65xsec4              1.00   0.14  0.00  0.00  0.86  0.00  0.00  0.00  0.00  0.00
  MC-65xsec5              4.16   0.14  0.00  0.00  0.86  0.00  0.00  0.00  0.00  0.00
  MC-66LStC1              1.00   1.00  0.00  0.00  0.00  0.00  0.00  0.00  0.00  0.00
  MC-66LStC2              1.00   1.00  0.00  0.00  0.00  0.00  0.00  0.00  0.00  0.00
  MC-66WStC               1.00   1.00  0.00  0.00  0.00  0.00  0.00  0.00  0.00  0.00
  MC-66WStT               3.05   1.00  0.00  0.00  0.00  0.00  0.00  0.00  0.00  0.00
  MC-67EDrC               1.00   0.00  0.00  0.00  1.00  0.00  0.00  0.00  0.00  0.00
  MC-67FM                 1.00   0.84  0.15  0.00  0.01  0.00  0.00  0.00  0.99  0.00
  MC-67OStC               1.00   0.00  0.84  0.00  0.00  0.00  0.00  0.16  0.84  0.00
  MC-68LABrC              5.17   0.00  0.00  0.00  1.00  0.00  0.00  0.00  0.00  0.00
  MC-68LABrL              4.06   0.00  0.00  0.00  1.00  0.00  0.00  0.00  0.00  0.00
  MC-68LABrR              3.76   0.00  0.00  0.00  1.00  0.00  0.00  0.00  0.00  0.00
  MC-68LABrT              1.00   1.00  0.00  0.00  0.00  0.00  0.00  0.00  0.00  0.00
  MC-69EBdBr              1.78   0.00  0.00  0.00  0.12  0.00  0.00  0.88  0.00  0.00
  MC-69EBdT               1.56   1.00  0.00  0.00  0.00  0.00  0.00  0.00  0.00  0.00
  MC-71MLnC1              1.00   0.00  0.00  0.00  0.00  0.00  1.00  0.00  0.00  0.00
  MC-71MLnC2              1.00   0.00  1.00  0.00  0.00  0.00  0.00  0.00  0.00  0.00
  MC-71MLnT               2.08   1.00  0.00  0.00  0.00  0.00  0.00  0.00  0.00  0.00
  MC-71OutC               1.00   0.00  0.16  0.00  0.45  0.00  0.39  0.00  0.00  0.00
  MC-71OutT               1.48   1.00  0.00  0.00  0.00  0.00  0.00  0.00  0.00  0.00
  MC-73natT               6.68   1.00  0.00  0.00  0.00  0.00  0.00  0.00  0.00  0.00
  MC-74BCtC               1.00   0.00  1.00  0.00  0.00  0.00  0.00  0.00  0.35  0.00
  MC-75BAvBr              4.47   0.00  0.00  0.00  1.00  0.00  0.00  0.00  0.00  0.00
  MC-75BAvT               2.52   1.00  0.00  0.00  0.00  0.00  0.00  0.00  0.00  0.00
  MC-7644Br              10.07   0.00  0.00  0.00  1.00  0.00  0.00  0.00  0.00  0.00
  MC-7644T                1.21   1.00  0.00  0.00  0.00  0.00  0.00  0.00  0.00  0.00
  MC-76xsec1              4.04   0.00  0.00  0.00  1.00  0.00  0.00  0.00  0.00  0.00
  MC-76xsec2              1.00   0.00  0.00  0.00  1.00  0.00  0.00  0.00  1.00  0.00
  MC-76xsec3              1.00   0.00  0.00  0.00  1.00  0.00  0.00  0.00  0.00  0.00
  MC-76xsec4             10.38   0.00  0.00  0.00  1.00  0.00  0.00  0.00  0.00  0.00
  MC-77100B               1.49   0.00  0.00  0.00  1.00  0.00  0.00  0.00  0.00  0.00
  MC-77100T               1.00   1.00  0.00  0.00  0.00  0.00  0.00  0.00  0.00  0.00
  MC-77xsec1              2.97   0.00  0.00  0.00  1.00  0.00  0.00  0.00  0.00  0.00
  MC-77xsec2              1.00   0.00  0.00  0.00  1.00  0.00  0.00  0.00  0.00  0.00
  MC-77xsec3              1.00   0.00  0.00  0.00  1.00  0.00  0.00  0.00  0.00  0.00
  MC-77xsec4              1.00   0.00  0.00  0.00  1.00  0.00  0.00  0.00  0.00  0.00
  MC-77xsec5             20.53   0.00  0.00  0.00  1.00  0.00  0.00  0.00  0.00  0.00
  MC-77xsec6              2.62   0.00  0.00  0.00  1.00  0.00  0.00  0.00  0.00  0.00
  MC-77xsec7             10.52   0.00  0.00  0.00  1.00  0.00  0.00  0.00  0.00  0.00
  MC-78FM                 1.00   1.00  0.00  0.00  0.00  0.00  0.00  0.00  0.00  0.00
  MC-78SS1                1.00   1.00  0.00  0.00  0.00  0.00  0.00  0.00  0.00  0.00
  MC-79SS1                1.00   0.00  1.00  0.00  0.00  0.00  0.00  0.00  0.00  0.00
  MC-80SS1                1.00   0.00  1.00  0.00  0.00  0.00  0.00  0.00  0.00  0.00
  MC-80SS2                1.15   0.00  0.00  0.00  1.00  0.00  0.00  0.00  0.00  0.00
  MC-80SS3                1.24   0.00  0.00  0.00  1.00  0.00  0.00  0.00  0.00  0.00
  MC-8150Br               4.75   0.08  0.00  0.00  0.92  0.00  0.00  0.00  0.91  0.00
  MC-8150T                1.00   1.00  0.00  0.00  0.00  0.00  0.00  0.00  0.00  0.00
  MC-81BAvB              13.29   0.02  0.00  0.00  0.00  0.00  0.00  0.98  0.00  0.00
  MC-81BAvT               5.84   1.00  0.00  0.00  0.00  0.00  0.00  0.00  0.00  0.00
  MC-81nat                8.26   1.00  0.00  0.00  0.00  0.00  0.00  0.00  0.00  0.00
  MC-81xsec1             30.99   0.02  0.00  0.00  0.97  0.00  0.00  0.00  0.95  0.00
  MC-81xsec2             12.11   0.02  0.00  0.00  0.94  0.03  0.00  0.00  0.92  0.00
  MC-81xsec3             36.99   0.06  0.00  0.00  0.01  0.92  0.00  0.00  0.09  0.00
  MC-82WAvB               5.09   0.00  0.00  0.00  1.00  0.00  0.00  0.00  0.00  0.00
  MC-82WAvT               1.81   1.00  0.00  0.00  0.00  0.00  0.00  0.00  0.00  0.00
  MC-82xsec1              1.00   0.00  0.08  0.00  0.92  0.00  0.00  0.00  0.92  0.00
  MC-82xsec2              1.00   0.00  0.00  0.00  1.00  0.00  0.00  0.00  0.79  0.00
  MC-82xsec3             19.86   0.00  0.01  0.00  0.99  0.00  0.00  0.00  0.00  0.00
  MC-82xsec4             10.89   0.00  0.10  0.00  0.90  0.00  0.00  0.00  0.90  0.00
  MC-83nat                1.08   1.00  0.00  0.00  0.00  0.00  0.00  0.00  0.00  0.00
  MC-84SS1                1.00   0.30  0.00  0.00  0.00  0.00  0.00  0.70  0.00  0.00
  MC-84SS2                1.00   0.30  0.67  0.00  0.03  0.00  0.00  0.00  0.69  0.00
  MC-84SS3                1.00   0.65  0.00  0.00  0.35  0.00  0.00  0.00  0.35  0.00
  MC-84SS4                1.00   0.65  0.00  0.00  0.00  0.00  0.00  0.35  0.00  0.00
  MC-85SS1                1.00   0.30  0.00  0.00  0.70  0.00  0.00  0.00  0.00  0.00
  MC-85SS2                1.00   0.30  0.00  0.00  0.00  0.00  0.00  0.70  0.00  0.00
  MC-85SS3                1.04   0.00  0.94  0.00  0.06  0.00  0.00  0.00  0.69  0.00
  MC-86PBrC               7.59   0.00  0.00  0.00  1.00  0.00  0.00  0.00  0.00  0.00
  MC-86PBrT               3.66   1.00  0.00  0.00  0.00  0.00  0.00  0.00  0.00  0.00
  MC-86xsec1              1.00   0.10  0.00  0.00  0.90  0.00  0.00  0.00  0.87  0.00
  MC-86xsec2              1.00   0.10  0.00  0.00  0.90  0.00  0.00  0.00  0.83  0.00
  MC-86xsec3              1.00   0.00  0.13  0.00  0.87  0.00  0.00  0.00  0.87  0.00
  MC-86xsec4              1.00   0.00  0.00  0.00  1.00  0.00  0.00  0.00  0.00  0.00
  MC-86xsec5              1.00   0.00  0.00  0.00  1.00  0.00  0.00  0.00  0.00  0.00
  MC-8754Br               4.40   0.17  0.00  0.00  0.83  0.00  0.00  0.00  0.00  0.00
  MC-8754T                3.60   1.00  0.00  0.00  0.00  0.00  0.00  0.00  0.00  0.00
  MC-87xsec1              1.00   0.00  0.00  0.00  1.00  0.00  0.00  0.00  0.00  0.00
  MC-87xsec2              1.00   0.00  0.00  0.00  1.00  0.00  0.00  0.00  0.00  0.00
  MC-87xsec3             12.68   0.00  0.04  0.00  0.96  0.00  0.00  0.00  0.00  0.00
  MC-87xsec4             15.32   0.17  0.00  0.00  0.80  0.03  0.00  0.00  0.79  0.00
  MC-8856Br               3.75   0.00  0.00  0.00  1.00  0.00  0.00  0.00  0.00  0.00
  MC-8856T                3.85   1.00  0.00  0.00  0.00  0.00  0.00  0.00  0.00  0.00
  MC-88xsec1              1.00   0.19  0.00  0.00  0.81  0.00  0.00  0.00  0.00  0.00
  MC-88xsec2              1.00   0.20  0.00  0.00  0.80  0.00  0.00  0.00  0.78  0.00
  MC-88xsec3              1.00   0.20  0.00  0.00  0.80  0.00  0.00  0.00  0.79  0.00
  MC-88xsec4              1.00   0.00  0.20  0.00  0.80  0.00  0.00  0.00  0.00  0.00
  MC-89OC                 1.00   0.97  0.00  0.00  0.00  0.00  0.00  0.03  0.00  0.00
  MC-89SS1                1.00   0.30  0.67  0.00  0.03  0.00  0.00  0.00  0.68  0.00
  MC-89SS2                1.00   0.30  0.00  0.00  0.00  0.00  0.00  0.70  0.00  0.00
  MC-90nat               30.32   1.00  0.00  0.00  0.00  0.00  0.00  0.00  0.00  0.00
  MC-9158C                1.00   0.22  0.78  0.00  0.00  0.00  0.00  0.00  0.00  0.00
  MC-9158T                2.80   1.00  0.00  0.00  0.00  0.00  0.00  0.00  0.00  0.00
  MC-92eof                1.00   1.00  0.00  0.00  0.00  0.00  0.00  0.00  0.00  0.00
  MC-92FAvC               1.82   0.00  0.00  0.00  1.00  0.00  0.00  0.00  0.00  0.00
  MC-92FAvT               2.05   1.00  0.00  0.00  0.00  0.00  0.00  0.00  0.00  0.00
  MC-92SS1                1.00   0.24  0.73  0.00  0.03  0.00  0.00  0.00  0.69  0.00
  MC-92SS2                2.64   0.22  0.02  0.00  0.76  0.00  0.00  0.00  0.00  0.00
  MC-92SS3                1.00   0.22  0.00  0.00  0.78  0.00  0.00  0.00  0.00  0.00
  MC-92xsec1              1.00   0.00  0.00  0.00  1.00  0.00  0.00  0.00  0.00  0.00
  MC-92xsec2              1.00   0.00  0.00  0.00  1.00  0.00  0.00  0.00  0.00  0.00
  MC-92xsec3              1.00   0.00  0.00  0.00  1.00  0.00  0.00  0.00  0.00  0.00
  MC-92xsec4              1.00   0.00  0.00  0.00  1.00  0.00  0.00  0.00  0.00  0.00
  MC-93XAvB               4.24   0.23  0.00  0.00  0.77  0.00  0.00  0.00  0.00  0.00
  MC-93xsec1              1.00   0.00  0.00  0.00  1.00  0.00  0.00  0.00  0.00  0.00
  MC-93xsec2              1.00   0.21  0.00  0.00  0.79  0.00  0.00  0.00  0.77  0.00
  MC-93xsec3              1.00   0.21  0.00  0.00  0.79  0.00  0.00  0.00  0.00  0.00
  MC-93xsec4              3.56   0.22  0.00  0.00  0.78  0.00  0.00  0.00  0.00  0.00
  MC-93xsec5              7.88   0.22  0.00  0.00  0.78  0.00  0.00  0.00  0.77  0.00
  MC-93xsec6              1.00   0.22  0.00  0.00  0.78  0.00  0.00  0.00  0.00  0.00
  MC-93xsec7              1.00   0.23  0.00  0.00  0.77  0.00  0.00  0.00  0.76  0.00
  MC-93xsec8              1.00   0.23  0.00  0.00  0.77  0.00  0.00  0.00  0.76  0.00
  MC-93xsec9              1.00   0.23  0.00  0.00  0.77  0.00  0.00  0.00  0.00  0.00
  MC-94UAvB               4.71   0.00  0.00  0.00  1.00  0.00  0.00  0.00  0.00  0.00
  MC-94UAvT               2.72   1.00  0.00  0.00  0.00  0.00  0.00  0.00  0.00  0.00
  MC-94xsec1              1.00   0.23  0.00  0.00  0.77  0.00  0.00  0.00  0.75  0.00
  MC-94xsec2              1.00   0.24  0.00  0.00  0.76  0.00  0.00  0.00  0.00  0.00
  MC-94xsec3              4.38   0.00  0.24  0.00  0.76  0.00  0.00  0.00  0.01  0.00
  MC-95SS1                1.00   0.30  0.00  0.00  0.70  0.00  0.00  0.00  0.01  0.00
  MC-95SS2                2.27   0.24  0.73  0.00  0.02  0.00  0.00  0.00  0.69  0.00
  MC-96PAvB               5.08   0.00  0.00  0.00  1.00  0.00  0.00  0.00  0.00  0.00
  MC-96PAvT               1.16   1.00  0.00  0.00  0.00  0.00  0.00  0.00  0.00  0.00
  MC-96xsec1              2.62   0.00  0.00  0.00  1.00  0.00  0.00  0.00  0.00  0.00
  MC-96xsec2              1.00   0.00  0.24  0.00  0.76  0.00  0.00  0.00  0.75  0.00
  MC-96xsec3              1.00   0.00  0.00  0.00  1.00  0.00  0.00  0.00  0.00  0.00
  MC-96xsec4              1.28   0.00  0.24  0.00  0.76  0.00  0.00  0.00  0.00  0.00
  MC-96xsec5              1.00   0.24  0.00  0.00  0.76  0.00  0.00  0.00  0.00  0.00
  MC-96xsec6              2.09   0.00  0.24  0.00  0.76  0.00  0.00  0.00  0.01  0.00
  MC-97SS1                1.04   0.25  0.00  0.00  0.75  0.00  0.00  0.00  0.00  0.00
  MC-98LAvB               3.26   0.25  0.00  0.00  0.75  0.00  0.00  0.00  0.00  0.00
  MC-98LAvL               2.89   0.25  0.00  0.00  0.75  0.00  0.00  0.00  0.00  0.00
  MC-98LAvR               2.89   0.25  0.00  0.00  0.75  0.00  0.00  0.00  0.00  0.00
  MC-98LAvT               1.09   1.00  0.00  0.00  0.00  0.00  0.00  0.00  0.00  0.00
  MC-98MFtB              22.43   0.00  0.00  0.00  1.00  0.00  0.00  0.00  0.00  0.00
  MC-98MFtT              19.29   1.00  0.00  0.00  0.00  0.00  0.00  0.00  0.00  0.00
  MC-98NFtB              24.96   0.00  0.00  0.00  1.00  0.00  0.00  0.00  0.00  0.00
  MC-98NFtT              25.23   1.00  0.00  0.00  0.00  0.00  0.00  0.00  0.00  0.00
  MC-98sec10              1.00   0.00  0.25  0.00  0.75  0.00  0.00  0.00  0.00  0.00
  MC-98sec11              1.00   0.00  0.25  0.00  0.75  0.00  0.00  0.00  0.00  0.00
  MC-98xsec1              4.45   0.00  0.00  0.00  1.00  0.00  0.00  0.00  0.00  0.00
  MC-98xsec2              1.00   0.00  0.00  0.00  1.00  0.00  0.00  0.00  0.00  0.00
  MC-98xsec3              8.26   0.00  0.24  0.00  0.76  0.00  0.00  0.00  0.75  0.00
  MC-98xsec4              5.89   0.00  0.00  0.00  1.00  0.00  0.00  0.00  0.00  0.00
  MC-98xsec5              1.00   0.24  0.00  0.00  0.75  0.00  0.00  0.00  0.74  0.00
  MC-98xsec6              2.34   0.00  0.25  0.00  0.75  0.00  0.00  0.00  0.00  0.00
  MC-98xsec7             25.96   0.00  0.00  0.00  1.00  0.00  0.00  0.00  0.00  0.00
  MC-98xsec8              3.18   0.00  0.00  0.00  1.00  0.00  0.00  0.00  0.00  0.00
  MC-98xsec9              1.00   0.00  0.00  0.00  1.00  0.00  0.00  0.00  0.00  0.00
  MC-99HAvB               5.93   0.00  0.00  0.00  1.00  0.00  0.00  0.00  0.00  0.00
  MC-99HAvT               1.52   1.00  0.00  0.00  0.00  0.00  0.00  0.00  0.00  0.00
  MC-99JAvB               6.53   0.00  0.00  0.00  1.00  0.00  0.00  0.00  0.00  0.00
  MC-99JAvO               1.00   1.00  0.00  0.00  0.00  0.00  0.00  0.00  0.00  0.00
  MC-99JAvT               1.00   1.00  0.00  0.00  0.00  0.00  0.00  0.00  0.00  0.00
  MC-99xsec1              1.00   0.25  0.00  0.00  0.75  0.00  0.00  0.00  0.73  0.00
  MC-99xsec2              1.64   0.00  0.25  0.00  0.75  0.00  0.00  0.00  0.00  0.00
  MC-99xsec3              1.00   0.25  0.00  0.00  0.74  0.00  0.00  0.00  0.72  0.00
  MC-99xsec4              1.00   0.26  0.00  0.00  0.74  0.00  0.00  0.00  0.00  0.00
  MC-99xsec5              2.32   0.00  0.26  0.00  0.74  0.00  0.00  0.00  0.00  0.00
  MR-1SS                  1.00   0.30  0.35  0.00  0.35  0.00  0.00  0.00  0.69  0.00
  MR-2SS                  1.00   0.30  0.00  0.00  0.00  0.00  0.00  0.70  0.00  0.00
  MR-3SS                  1.00   1.00  0.00  0.00  0.00  0.00  0.00  0.00  0.00  0.00
  SS354RCP                1.00   0.00  0.00  0.00  0.00  0.00  0.00  1.00  0.00  0.00
  SS360RCP                1.00   1.00  0.00  0.00  0.00  0.00  0.00  0.00  0.00  0.00
  WL-1LAv                 1.00   1.00  0.00  0.00  0.00  0.00  0.00  0.00  0.00  0.00
  WL-366St                1.00   1.00  0.00  0.00  0.00  0.00  0.00  0.00  0.00  0.00
  
  
  *************************
  Conduit Surcharge Summary
  *************************
  
  ----------------------------------------------------------------------------
                                                           Hours        Hours 
                         --------- Hours Full --------   Above Full   Capacity
  Conduit                Both Ends  Upstream  Dnstream   Normal Flow   Limited
  ----------------------------------------------------------------------------
  64thStC                     0.01      0.01      0.01      0.01         0.01
  MC-100FM                    0.01      0.01    215.92     14.39         0.01
  MC-100PAC2                216.00    216.00    216.00     19.71        94.35
  MC-100PAvC                216.00    216.00    216.00     16.21        93.55
  MC-104DivC                  0.01      0.01    210.04      0.01         0.01
  MC-105P1A                 216.00    216.00    216.00      1.87         1.88
  MC-105P1B                 216.00    216.00    216.00      1.87         1.88
  MC-105P1C                 216.00    216.00    216.00      1.87         1.88
  MC-105P3C1                 21.76     21.86     21.76     21.42         9.03
  MC-105P3C2                 21.76     21.81     21.76     15.29         7.86
  MC-105P3C3                  1.40      1.40      1.40      0.01         0.01
  MC-124SS2                 106.82    106.98    113.26      0.01         0.14
  MC-125OutC                 78.12    215.89     78.15     62.27         0.14
  MC-126P1                   32.15     32.15     52.66      0.01         0.01
  MC-126P2                    0.01      0.01      0.01      0.01         0.01
  MC-143_36C                  0.01      0.01      0.01      0.01         0.01
  MC-14336C                   0.01      0.01      0.01      0.01         0.01
  MC-144SS1                   0.01    216.00      0.01    216.00         0.01
  MC-144SS2                   0.01      0.01      0.01    215.85         0.01
  MC-153SS1                   0.01      0.01    149.52      0.01         0.01
  MC-162AC                  215.85    215.85    216.00      0.01         0.01
  MC-163GC                  216.00    216.00    216.00      0.01         0.01
  MC-165SS1                   0.01      0.01    149.36      0.01         0.01
  MC-166NC                  215.99    215.99    216.00      0.01         0.01
  MC-39RR                   208.40    216.00    208.40    216.00       208.40
  MC-41MBdBr                  0.01      0.01      0.01    202.60         0.01
  MC-45WLnC                   0.01      0.01      0.01      4.27         0.01
  MC-49FM                     0.01      0.01    212.52      0.01         0.01
  MC-50FM                     0.01      0.01    215.96      0.01         0.01
  MC-67EDrC                   0.57      0.58    215.20      0.01         0.01
  MC-69EBdBr                  0.01      0.01      0.01    188.04         0.01
  MC-71OutC                   0.01      0.01    179.99      0.01         0.01
  
  
  ***************
  Pumping Summary
  ***************
  
  ---------------------------------------------------------------------------------------------------------
                                                  Min       Avg       Max     Total     Power    % Time Off
                        Percent   Number of      Flow      Flow      Flow    Volume     Usage    Pump Curve
  Pump                 Utilized   Start-Ups       CFS       CFS       CFS  10^6 gal     Kw-hr    Low   High
  ---------------------------------------------------------------------------------------------------------
  PUMP1atMC-52-MC-53       0.00           1      0.00      3.10      3.10     0.000      0.00    0.0  100.0
  PUMP2atMC-52-MC-53       0.00           1      0.00      3.10      3.10     0.000      0.00    0.0  100.0
  PUMP1atMC-49-MC-49FN1    15.11           1      0.00      0.87      0.87     0.760     30.92    0.0    0.0
  PUMP1atMC-78-MC-78FN1     0.00           1      0.00     11.70     11.70     0.000      0.00  100.0    0.0
  PUMP2atMC-78-MC-78FN1     0.00           1      0.00     11.70     11.70     0.000      0.00  100.0    0.0
  PUMP1atMC-50-MC-50FN1    16.29           1      0.00      0.81      0.99     0.753     51.31    0.0    0.0
  PUMP1atMC-67FN1-MC-67FN2     0.51           3      0.00     22.22     22.25     0.655     11.12    0.6    0.0
  PUMP2atMC-67FN1-MC-67FN2     0.51           3      0.00     11.02     11.05     0.325      5.51    0.6    0.0
  PUMP1atMC-100FN1-MC-100FN2     7.82         615      0.00      3.25      3.30     1.476     70.04    9.2    0.2
  PUMP2atMC-100FN1-MC-100FN2     7.82         615      0.00      3.25      3.30     1.476     70.04    9.2    0.2
  PUMP1atMR-3-MR-3FN1      0.00           0      0.00      0.00      0.00     0.000      0.00    0.0    0.0
  

  Analysis begun on:  Fri Nov 29 09:03:37 2019
  Analysis ended on:  Fri Nov 29 09:04:49 2019
  Total elapsed time: 00:01:12