
  EPA STORM WATER MANAGEMENT MODEL - VERSION 5.1 (Build 5.1.013)
  --------------------------------------------------------------

            Metropolitan Sewer District of Greater Cincinnati - Capacity Assessment Project 
            RUNOFF Input for Indian Creek WWTP Model  10-year design storm  rainfall AF=1.00 
            India Creek WTP Service Area   Resize 
  
  
  **********************           Volume        Volume
  Rainfall Dependent I/I        acre-feet      10^6 gal
  **********************        ---------     ---------
  Sewershed Rainfall ......       427.881       139.431
  RDII Produced ...........         5.691         1.855
  RDII Ratio ..............         0.013
  
  
  *********************************************************
  NOTE: The summary statistics displayed in this report are
  based on results found at every computational time step,  
  not just on results from each reporting time step.
  *********************************************************
  
  ****************
  Analysis Options
  ****************
  Flow Units ............... CFS
  Process Models:
    Rainfall/Runoff ........ YES
    RDII ................... YES
    Snowmelt ............... NO
    Groundwater ............ NO
    Flow Routing ........... YES
    Ponding Allowed ........ NO
    Water Quality .......... NO
  Flow Routing Method ...... DYNWAVE
  Surcharge Method ......... EXTRAN
  Starting Date ............ 07/01/2003 00:00:00
  Ending Date .............. 07/02/2003 00:00:00
  Antecedent Dry Days ...... 0.0
  Report Time Step ......... 00:01:00
  Routing Time Step ........ 60.00 sec
  Variable Time Step ....... YES
  Maximum Trials ........... 8
  Number of Threads ........ 1
  Head Tolerance ........... 0.005000 ft
  
  
  **************************        Volume        Volume
  Flow Routing Continuity        acre-feet      10^6 gal
  **************************     ---------     ---------
  Dry Weather Inflow .......         0.000         0.000
  Wet Weather Inflow .......         0.000         0.000
  Groundwater Inflow .......         0.000         0.000
  RDII Inflow ..............         0.000         0.000
  External Inflow ..........         0.000         0.000
  External Outflow .........         0.000         0.000
  Flooding Loss ............         0.000         0.000
  Evaporation Loss .........         0.000         0.000
  Exfiltration Loss ........         0.000         0.000
  Initial Stored Volume ....         0.000         0.000
  Final Stored Volume ......         0.000         0.000
  Continuity Error (%) .....         0.000
  
  
  ***************************
  Time-Step Critical Elements
  ***************************
  None
  
  
  ********************************
  Highest Flow Instability Indexes
  ********************************
  All links are stable.
  
  
  ******************
  Node Depth Summary
  ******************
  
  ---------------------------------------------------------------------------------
                                 Average  Maximum  Maximum  Time of Max    Reported
                                   Depth    Depth      HGL   Occurrence   Max Depth
  Node                 Type         Feet     Feet     Feet  days hr:min        Feet
  ---------------------------------------------------------------------------------
  10703001             JUNCTION  -nan(ind)     0.00   694.35     0  00:00        0.00
  10703002             JUNCTION  -nan(ind)     0.00   699.31     0  00:00        0.00
  10703003             JUNCTION  -nan(ind)     0.00   703.08     0  00:00        0.00
  10706001             JUNCTION  -nan(ind)     0.00   714.21     0  00:00        0.00
  10706002             JUNCTION  -nan(ind)     0.00   720.29     0  00:00        0.00
  10706003             JUNCTION  -nan(ind)     0.00   728.26     0  00:00        0.00
  10706004             JUNCTION  -nan(ind)     0.00   741.76     0  00:00        0.00
  10711001             JUNCTION  -nan(ind)     0.00   803.93     0  00:00        0.00
  10711002             JUNCTION  -nan(ind)     0.00   814.11     0  00:00        0.00
  10711003             JUNCTION  -nan(ind)     0.00   818.95     0  00:00        0.00
  10711004             JUNCTION  -nan(ind)     0.00   824.80     0  00:00        0.00
  10711005             JUNCTION  -nan(ind)     0.00   825.29     0  00:00        0.00
  10711006             JUNCTION  -nan(ind)     0.00   826.02     0  00:00        0.00
  10712005             JUNCTION  -nan(ind)     0.00   758.83     0  00:00        0.00
  10712006             JUNCTION  -nan(ind)     0.00   775.76     0  00:00        0.00
  10712007             JUNCTION  -nan(ind)     0.00   790.00     0  00:00        0.00
  10712008             JUNCTION  -nan(ind)     0.00   824.00     0  00:00        0.00
  10713001             JUNCTION  -nan(ind)     0.00   841.20     0  00:00        0.00
  10713002             JUNCTION  -nan(ind)     0.00   843.10     0  00:00        0.00
  10713003             JUNCTION  -nan(ind)     0.00   843.70     0  00:00        0.00
  10807001             JUNCTION  -nan(ind)     0.00   622.16     0  00:00        0.00
  10807003             JUNCTION  -nan(ind)     0.00   634.14     0  00:00        0.00
  10807004             JUNCTION  -nan(ind)     0.00   644.51     0  00:00        0.00
  10808001             JUNCTION  -nan(ind)     0.00   559.61     0  00:00        0.00
  10810001             JUNCTION  -nan(ind)     0.00   645.68     0  00:00        0.00
  10810002             JUNCTION  -nan(ind)     0.00   677.43     0  00:00        0.00
  10810003             JUNCTION  -nan(ind)     0.00   646.40     0  00:00        0.00
  10810004             JUNCTION  -nan(ind)     0.00   647.38     0  00:00        0.00
  10811001             JUNCTION  -nan(ind)     0.00   648.25     0  00:00        0.00
  10811003             JUNCTION  -nan(ind)     0.00   654.79     0  00:00        0.00
  10811004             JUNCTION  -nan(ind)     0.00   666.16     0  00:00        0.00
  10814001             JUNCTION  -nan(ind)     0.00   668.68     0  00:00        0.00
  10814002             JUNCTION  -nan(ind)     0.00   681.76     0  00:00        0.00
  10814003             JUNCTION  -nan(ind)     0.00   683.39     0  00:00        0.00
  10814004             JUNCTION  -nan(ind)     0.00   685.85     0  00:00        0.00
  10814007             JUNCTION  -nan(ind)     0.00   679.31     0  00:00        0.00
  7304008              JUNCTION  -nan(ind)     0.00   481.26     0  00:00        0.00
  7304010              JUNCTION  -nan(ind)     0.00   479.88     0  00:00        0.00
  7304026              JUNCTION  -nan(ind)     0.00   470.34     0  00:00        0.00
  7304027              JUNCTION  -nan(ind)     0.00   469.17     0  00:00        0.00
  7304028              JUNCTION  -nan(ind)     0.00   488.83     0  00:00        0.00
  7304029              JUNCTION  -nan(ind)     0.00   491.44     0  00:00        0.00
  7305001              JUNCTION  -nan(ind)     0.00   477.84     0  00:00        0.00
  7305002              JUNCTION  -nan(ind)     0.00   476.36     0  00:00        0.00
  7305003              JUNCTION  -nan(ind)     0.00   475.53     0  00:00        0.00
  7305004              JUNCTION  -nan(ind)     0.00   478.18     0  00:00        0.00
  7305007              JUNCTION  -nan(ind)     0.00   478.46     0  00:00        0.00
  7305008              JUNCTION  -nan(ind)     0.00   483.66     0  00:00        0.00
  7305010              JUNCTION  -nan(ind)     0.00   481.97     0  00:00        0.00
  7305015              JUNCTION  -nan(ind)     0.00   483.66     0  00:00        0.00
  7305019              JUNCTION  -nan(ind)     0.00   485.84     0  00:00        0.00
  7305022              JUNCTION  -nan(ind)     0.00   492.70     0  00:00        0.00
  7305023              JUNCTION  -nan(ind)     0.00   499.34     0  00:00        0.00
  7305024              JUNCTION  -nan(ind)     0.00   480.03     0  00:00        0.00
  7305025              JUNCTION  -nan(ind)     0.00   487.31     0  00:00        0.00
  7306005              JUNCTION  -nan(ind)     0.00   474.94     0  00:00        0.00
  7306006              JUNCTION  -nan(ind)     0.00   474.18     0  00:00        0.00
  7306007              JUNCTION  -nan(ind)     0.00   472.53     0  00:00        0.00
  7306008              JUNCTION  -nan(ind)     0.00   471.60     0  00:00        0.00
  7306009              JUNCTION  -nan(ind)     0.00   475.52     0  00:00        0.00
  7311001              JUNCTION  -nan(ind)     0.00   476.08     0  00:00        0.00
  7311002              JUNCTION  -nan(ind)     0.00   477.35     0  00:00        0.00
  7311003              JUNCTION  -nan(ind)     0.00   477.69     0  00:00        0.00
  7312003              JUNCTION  -nan(ind)     0.00   479.12     0  00:00        0.00
  7312005              JUNCTION  -nan(ind)     0.00   481.72     0  00:00        0.00
  7312006              JUNCTION  -nan(ind)     0.00   483.53     0  00:00        0.00
  7312012              JUNCTION  -nan(ind)     0.00   477.98     0  00:00        0.00
  7312013              JUNCTION  -nan(ind)     0.00   477.53     0  00:00        0.00
  7312014              JUNCTION  -nan(ind)     0.00   476.85     0  00:00        0.00
  7404003              JUNCTION  -nan(ind)     0.00   499.23     0  00:00        0.00
  7404004              JUNCTION  -nan(ind)     0.00   500.84     0  00:00        0.00
  7404005              JUNCTION  -nan(ind)     0.00   503.00     0  00:00        0.00
  7411005              JUNCTION  -nan(ind)     0.00   479.31     0  00:00        0.00
  7411007              JUNCTION  -nan(ind)     0.00   472.32     0  00:00        0.00
  7411021              JUNCTION  -nan(ind)     0.00   485.00     0  00:00        0.00
  7411026              JUNCTION  -nan(ind)     0.00   468.81     0  00:00        0.00
  7411027              JUNCTION  -nan(ind)     0.00   467.76     0  00:00        0.00
  7411028              JUNCTION  -nan(ind)     0.00   466.92     0  00:00        0.00
  7411029              JUNCTION  -nan(ind)     0.00   466.37     0  00:00        0.00
  7411030              JUNCTION  -nan(ind)     0.00   464.28     0  00:00        0.00
  7411031              JUNCTION  -nan(ind)     0.00   455.00     0  00:00        0.00
  7413002              JUNCTION  -nan(ind)     0.00   477.69     0  00:00        0.00
  7413003              JUNCTION  -nan(ind)     0.00   472.21     0  00:00        0.00
  7413004              JUNCTION  -nan(ind)     0.00   479.63     0  00:00        0.00
  7413009              JUNCTION  -nan(ind)     0.00   484.66     0  00:00        0.00
  7413010              JUNCTION  -nan(ind)     0.00   485.34     0  00:00        0.00
  7413011              JUNCTION  -nan(ind)     0.00   486.73     0  00:00        0.00
  7413012              JUNCTION  -nan(ind)     0.00   487.82     0  00:00        0.00
  7413024              JUNCTION  -nan(ind)     0.00   468.24     0  00:00        0.00
  7413025              JUNCTION  -nan(ind)     0.00   467.32     0  00:00        0.00
  7414001              JUNCTION  -nan(ind)     0.00   465.65     0  00:00        0.00
  7414002              JUNCTION  -nan(ind)     0.00   467.61     0  00:00        0.00
  7414003              JUNCTION  -nan(ind)     0.00   466.53     0  00:00        0.00
  7513005              JUNCTION  -nan(ind)     0.00   485.28     0  00:00        0.00
  7513006              JUNCTION  -nan(ind)     0.00   485.54     0  00:00        0.00
  7513007              JUNCTION  -nan(ind)     0.00   486.40     0  00:00        0.00
  7513008              JUNCTION  -nan(ind)     0.00   486.93     0  00:00        0.00
  7513009              JUNCTION  -nan(ind)     0.00   487.36     0  00:00        0.00
  7513010              JUNCTION  -nan(ind)     0.00   488.23     0  00:00        0.00
  7513012              JUNCTION  -nan(ind)     0.00   487.04     0  00:00        0.00
  7513018              JUNCTION  -nan(ind)     0.00   461.70     0  00:00        0.00
  7513019              JUNCTION  -nan(ind)     0.00   462.76     0  00:00        0.00
  7513020              JUNCTION  -nan(ind)     0.00   463.54     0  00:00        0.00
  7811001              JUNCTION  -nan(ind)     0.00   502.48     0  00:00        0.00
  7811002              JUNCTION  -nan(ind)     0.00   503.99     0  00:00        0.00
  7811003              JUNCTION  -nan(ind)     0.00   504.82     0  00:00        0.00
  7811004              JUNCTION  -nan(ind)     0.00   505.52     0  00:00        0.00
  7811005              JUNCTION  -nan(ind)     0.00   505.91     0  00:00        0.00
  7811006              JUNCTION  -nan(ind)     0.00   507.20     0  00:00        0.00
  7815001              JUNCTION  -nan(ind)     0.00   485.87     0  00:00        0.00
  7815002              JUNCTION  -nan(ind)     0.00   492.83     0  00:00        0.00
  7815003              JUNCTION  -nan(ind)     0.00   498.57     0  00:00        0.00
  7815009              JUNCTION  -nan(ind)     0.00   498.63     0  00:00        0.00
  7815010              JUNCTION  -nan(ind)     0.00   499.01     0  00:00        0.00
  7815011              JUNCTION  -nan(ind)     0.00   499.83     0  00:00        0.00
  7815012              JUNCTION  -nan(ind)     0.00   500.83     0  00:00        0.00
  7816005              JUNCTION  -nan(ind)     0.00   488.97     0  00:00        0.00
  7816011              JUNCTION  -nan(ind)     0.00   466.00     0  00:00        0.00
  7816012              JUNCTION  -nan(ind)     0.00   465.17     0  00:00        0.00
  7816013              JUNCTION  -nan(ind)     0.00   478.07     0  00:00        0.00
  7816014              JUNCTION  -nan(ind)     0.00   474.52     0  00:00        0.00
  7816015              JUNCTION  -nan(ind)     0.00   473.57     0  00:00        0.00
  7816016              JUNCTION  -nan(ind)     0.00   468.38     0  00:00        0.00
  7816017              JUNCTION  -nan(ind)     0.00   467.81     0  00:00        0.00
  7901003              JUNCTION  -nan(ind)     0.00   504.80     0  00:00        0.00
  7901004              JUNCTION  -nan(ind)     0.00   506.94     0  00:00        0.00
  7901005              JUNCTION  -nan(ind)     0.00   511.25     0  00:00        0.00
  7901008              JUNCTION  -nan(ind)     0.00   468.68     0  00:00        0.00
  7901009              JUNCTION  -nan(ind)     0.00   470.03     0  00:00        0.00
  7901010              JUNCTION  -nan(ind)     0.00   471.12     0  00:00        0.00
  7901011              JUNCTION  -nan(ind)     0.00   473.47     0  00:00        0.00
  7901012              JUNCTION  -nan(ind)     0.00   472.37     0  00:00        0.00
  7903003              JUNCTION  -nan(ind)     0.00   493.61     0  00:00        0.00
  7903009              JUNCTION  -nan(ind)     0.00   502.40     0  00:00        0.00
  7903010              JUNCTION  -nan(ind)     0.00   505.35     0  00:00        0.00
  7903011              JUNCTION  -nan(ind)     0.00   517.94     0  00:00        0.00
  7904001              JUNCTION  -nan(ind)     0.00   521.85     0  00:00        0.00
  7904002              JUNCTION  -nan(ind)     0.00   527.14     0  00:00        0.00
  7904003              JUNCTION  -nan(ind)     0.00   540.59     0  00:00        0.00
  7904004              JUNCTION  -nan(ind)     0.00   524.95     0  00:00        0.00
  7905003              JUNCTION  -nan(ind)     0.00   552.11     0  00:00        0.00
  7906003              JUNCTION  -nan(ind)     0.00   480.84     0  00:00        0.00
  7906004              JUNCTION  -nan(ind)     0.00   486.11     0  00:00        0.00
  7907001              JUNCTION  -nan(ind)     0.00   475.17     0  00:00        0.00
  7907002              JUNCTION  -nan(ind)     0.00   477.19     0  00:00        0.00
  7907003              JUNCTION  -nan(ind)     0.00   478.81     0  00:00        0.00
  7907004              JUNCTION  -nan(ind)     0.00   479.89     0  00:00        0.00
  7907005              JUNCTION  -nan(ind)     0.00   480.06     0  00:00        0.00
  8006001              JUNCTION  -nan(ind)     0.00   578.62     0  00:00        0.00
  8006002              JUNCTION  -nan(ind)     0.00   580.92     0  00:00        0.00
  8007001              JUNCTION  -nan(ind)     0.00   528.73     0  00:00        0.00
  8007002              JUNCTION  -nan(ind)     0.00   540.27     0  00:00        0.00
  8007003              JUNCTION  -nan(ind)     0.00   555.48     0  00:00        0.00
  8007004              JUNCTION  -nan(ind)     0.00   557.43     0  00:00        0.00
  8007005              JUNCTION  -nan(ind)     0.00   569.03     0  00:00        0.00
  8008002              JUNCTION  -nan(ind)     0.00   493.20     0  00:00        0.00
  8008003              JUNCTION  -nan(ind)     0.00   494.54     0  00:00        0.00
  8008004              JUNCTION  -nan(ind)     0.00   498.40     0  00:00        0.00
  8008005              JUNCTION  -nan(ind)     0.00   501.18     0  00:00        0.00
  8008006              JUNCTION  -nan(ind)     0.00   501.67     0  00:00        0.00
  8008007              JUNCTION  -nan(ind)     0.00   504.37     0  00:00        0.00
  8008008              JUNCTION  -nan(ind)     0.00   513.54     0  00:00        0.00
  8008009              JUNCTION  -nan(ind)     0.00   524.80     0  00:00        0.00
  8009001              JUNCTION  -nan(ind)     0.00   585.85     0  00:00        0.00
  8009002              JUNCTION  -nan(ind)     0.00   604.35     0  00:00        0.00
  8009003              JUNCTION  -nan(ind)     0.00   608.46     0  00:00        0.00
  8009008              JUNCTION  -nan(ind)     0.00   616.82     0  00:00        0.00
  8009009              JUNCTION  -nan(ind)     0.00   618.48     0  00:00        0.00
  8009012              JUNCTION  -nan(ind)     0.00   544.40     0  00:00        0.00
  8016005              JUNCTION  -nan(ind)     0.00   637.26     0  00:00        0.00
  8016006              JUNCTION  -nan(ind)     0.00   638.43     0  00:00        0.00
  8016007              JUNCTION  -nan(ind)     0.00   639.05     0  00:00        0.00
  8016011              JUNCTION  -nan(ind)     0.00   640.67     0  00:00        0.00
  8016014              JUNCTION  -nan(ind)     0.00   641.41     0  00:00        0.00
  7513023              OUTFALL   -nan(ind)     0.00   479.40     0  00:00        0.00
  7513017              OUTFALL   -nan(ind)     0.00   460.53     0  00:00        0.00
  
  
  *******************
  Node Inflow Summary
  *******************
  
  -------------------------------------------------------------------------------------------------
                                  Maximum  Maximum                  Lateral       Total        Flow
                                  Lateral    Total  Time of Max      Inflow      Inflow     Balance
                                   Inflow   Inflow   Occurrence      Volume      Volume       Error
  Node                 Type           CFS      CFS  days hr:min    10^6 gal    10^6 gal     Percent
  -------------------------------------------------------------------------------------------------
  10703001             JUNCTION      0.00     0.00     0  00:00           0           0       0.000 gal
  10703002             JUNCTION      0.00     0.00     0  00:00           0           0       0.000 gal
  10703003             JUNCTION      0.00     0.00     0  00:00           0           0       0.000 gal
  10706001             JUNCTION      0.00     0.00     0  00:00           0           0       0.000 gal
  10706002             JUNCTION      0.00     0.00     0  00:00           0           0       0.000 gal
  10706003             JUNCTION      0.00     0.00     0  00:00           0           0       0.000 gal
  10706004             JUNCTION      0.00     0.00     0  00:00           0           0       0.000 gal
  10711001             JUNCTION      0.00     0.00     0  00:00           0           0       0.000 gal
  10711002             JUNCTION      0.00     0.00     0  00:00           0           0       0.000 gal
  10711003             JUNCTION      0.00     0.00     0  00:00           0           0       0.000 gal
  10711004             JUNCTION      0.00     0.00     0  00:00           0           0       0.000 gal
  10711005             JUNCTION      0.00     0.00     0  00:00           0           0       0.000 gal
  10711006             JUNCTION      0.00     0.00     0  00:00           0           0       0.000 gal
  10712005             JUNCTION      0.00     0.00     0  00:00           0           0       0.000 gal
  10712006             JUNCTION      0.00     0.00     0  00:00           0           0       0.000 gal
  10712007             JUNCTION      0.00     0.00     0  00:00           0           0       0.000 gal
  10712008             JUNCTION      0.00     0.00     0  00:00           0           0       0.000 gal
  10713001             JUNCTION      0.00     0.00     0  00:00           0           0       0.000 gal
  10713002             JUNCTION      0.00     0.00     0  00:00           0           0       0.000 gal
  10713003             JUNCTION      0.00     0.00     0  00:00           0           0       0.000 gal
  10807001             JUNCTION      0.00     0.00     0  00:00           0           0       0.000 gal
  10807003             JUNCTION      0.00     0.00     0  00:00           0           0       0.000 gal
  10807004             JUNCTION      0.00     0.00     0  00:00           0           0       0.000 gal
  10808001             JUNCTION      0.00     0.00     0  00:00           0           0       0.000 gal
  10810001             JUNCTION      0.00     0.00     0  00:00           0           0       0.000 gal
  10810002             JUNCTION      0.00     0.00     0  00:00           0           0       0.000 gal
  10810003             JUNCTION      0.00     0.00     0  00:00           0           0       0.000 gal
  10810004             JUNCTION      0.00     0.00     0  00:00           0           0       0.000 gal
  10811001             JUNCTION      0.00     0.00     0  00:00           0           0       0.000 gal
  10811003             JUNCTION      0.00     0.00     0  00:00           0           0       0.000 gal
  10811004             JUNCTION      0.00     0.00     0  00:00           0           0       0.000 gal
  10814001             JUNCTION      0.00     0.00     0  00:00           0           0       0.000 gal
  10814002             JUNCTION      0.00     0.00     0  00:00           0           0       0.000 gal
  10814003             JUNCTION      0.00     0.00     0  00:00           0           0       0.000 gal
  10814004             JUNCTION      0.00     0.00     0  00:00           0           0       0.000 gal
  10814007             JUNCTION      0.00     0.00     0  00:00           0           0       0.000 gal
  7304008              JUNCTION      0.00     0.00     0  00:00           0           0       0.000 gal
  7304010              JUNCTION      0.00     0.00     0  00:00           0           0       0.000 gal
  7304026              JUNCTION      0.00     0.00     0  00:00           0           0       0.000 gal
  7304027              JUNCTION      0.00     0.00     0  00:00           0           0       0.000 gal
  7304028              JUNCTION      0.00     0.00     0  00:00           0           0       0.000 gal
  7304029              JUNCTION      0.00     0.00     0  00:00           0           0       0.000 gal
  7305001              JUNCTION      0.00     0.00     0  00:00           0           0       0.000 gal
  7305002              JUNCTION      0.00     0.00     0  00:00           0           0       0.000 gal
  7305003              JUNCTION      0.00     0.00     0  00:00           0           0       0.000 gal
  7305004              JUNCTION      0.00     0.00     0  00:00           0           0       0.000 gal
  7305007              JUNCTION      0.00     0.00     0  00:00           0           0       0.000 gal
  7305008              JUNCTION      0.00     0.00     0  00:00           0           0       0.000 gal
  7305010              JUNCTION      0.00     0.00     0  00:00           0           0       0.000 gal
  7305015              JUNCTION      0.00     0.00     0  00:00           0           0       0.000 gal
  7305019              JUNCTION      0.00     0.00     0  00:00           0           0       0.000 gal
  7305022              JUNCTION      0.00     0.00     0  00:00           0           0       0.000 gal
  7305023              JUNCTION      0.00     0.00     0  00:00           0           0       0.000 gal
  7305024              JUNCTION      0.00     0.00     0  00:00           0           0       0.000 gal
  7305025              JUNCTION      0.00     0.00     0  00:00           0           0       0.000 gal
  7306005              JUNCTION      0.00     0.00     0  00:00           0           0       0.000 gal
  7306006              JUNCTION      0.00     0.00     0  00:00           0           0       0.000 gal
  7306007              JUNCTION      0.00     0.00     0  00:00           0           0       0.000 gal
  7306008              JUNCTION      0.00     0.00     0  00:00           0           0       0.000 gal
  7306009              JUNCTION      0.00     0.00     0  00:00           0           0       0.000 gal
  7311001              JUNCTION      0.00     0.00     0  00:00           0           0       0.000 gal
  7311002              JUNCTION      0.00     0.00     0  00:00           0           0       0.000 gal
  7311003              JUNCTION      0.00     0.00     0  00:00           0           0       0.000 gal
  7312003              JUNCTION      0.00     0.00     0  00:00           0           0       0.000 gal
  7312005              JUNCTION      0.00     0.00     0  00:00           0           0       0.000 gal
  7312006              JUNCTION      0.00     0.00     0  00:00           0           0       0.000 gal
  7312012              JUNCTION      0.00     0.00     0  00:00           0           0       0.000 gal
  7312013              JUNCTION      0.00     0.00     0  00:00           0           0       0.000 gal
  7312014              JUNCTION      0.00     0.00     0  00:00           0           0       0.000 gal
  7404003              JUNCTION      0.00     0.00     0  00:00           0           0       0.000 gal
  7404004              JUNCTION      0.00     0.00     0  00:00           0           0       0.000 gal
  7404005              JUNCTION      0.00     0.00     0  00:00           0           0       0.000 gal
  7411005              JUNCTION      0.00     0.00     0  00:00           0           0       0.000 gal
  7411007              JUNCTION      0.00     0.00     0  00:00           0           0       0.000 gal
  7411021              JUNCTION      0.00     0.00     0  00:00           0           0       0.000 gal
  7411026              JUNCTION      0.00     0.00     0  00:00           0           0       0.000 gal
  7411027              JUNCTION      0.00     0.00     0  00:00           0           0       0.000 gal
  7411028              JUNCTION      0.00     0.00     0  00:00           0           0       0.000 gal
  7411029              JUNCTION      0.00     0.00     0  00:00           0           0       0.000 gal
  7411030              JUNCTION      0.00     0.00     0  00:00           0           0       0.000 gal
  7411031              JUNCTION      0.00     0.00     0  00:00           0           0       0.000 gal
  7413002              JUNCTION      0.00     0.00     0  00:00           0           0       0.000 gal
  7413003              JUNCTION      0.00     0.00     0  00:00           0           0       0.000 gal
  7413004              JUNCTION      0.00     0.00     0  00:00           0           0       0.000 gal
  7413009              JUNCTION      0.00     0.00     0  00:00           0           0       0.000 gal
  7413010              JUNCTION      0.00     0.00     0  00:00           0           0       0.000 gal
  7413011              JUNCTION      0.00     0.00     0  00:00           0           0       0.000 gal
  7413012              JUNCTION      0.00     0.00     0  00:00           0           0       0.000 gal
  7413024              JUNCTION      0.00     0.00     0  00:00           0           0       0.000 gal
  7413025              JUNCTION      0.00     0.00     0  00:00           0           0       0.000 gal
  7414001              JUNCTION      0.00     0.00     0  00:00           0           0       0.000 gal
  7414002              JUNCTION      0.00     0.00     0  00:00           0           0       0.000 gal
  7414003              JUNCTION      0.00     0.00     0  00:00           0           0       0.000 gal
  7513005              JUNCTION      0.00     0.00     0  00:00           0           0       0.000 gal
  7513006              JUNCTION      0.00     0.00     0  00:00           0           0       0.000 gal
  7513007              JUNCTION      0.00     0.00     0  00:00           0           0       0.000 gal
  7513008              JUNCTION      0.00     0.00     0  00:00           0           0       0.000 gal
  7513009              JUNCTION      0.00     0.00     0  00:00           0           0       0.000 gal
  7513010              JUNCTION      0.00     0.00     0  00:00           0           0       0.000 gal
  7513012              JUNCTION      0.00     0.00     0  00:00           0           0       0.000 gal
  7513018              JUNCTION      0.00     0.00     0  00:00           0           0       0.000 gal
  7513019              JUNCTION      0.00     0.00     0  00:00           0           0       0.000 gal
  7513020              JUNCTION      0.00     0.00     0  00:00           0           0       0.000 gal
  7811001              JUNCTION      0.00     0.00     0  00:00           0           0       0.000 gal
  7811002              JUNCTION      0.00     0.00     0  00:00           0           0       0.000 gal
  7811003              JUNCTION      0.00     0.00     0  00:00           0           0       0.000 gal
  7811004              JUNCTION      0.00     0.00     0  00:00           0           0       0.000 gal
  7811005              JUNCTION      0.00     0.00     0  00:00           0           0       0.000 gal
  7811006              JUNCTION      0.00     0.00     0  00:00           0           0       0.000 gal
  7815001              JUNCTION      0.00     0.00     0  00:00           0           0       0.000 gal
  7815002              JUNCTION      0.00     0.00     0  00:00           0           0       0.000 gal
  7815003              JUNCTION      0.00     0.00     0  00:00           0           0       0.000 gal
  7815009              JUNCTION      0.00     0.00     0  00:00           0           0       0.000 gal
  7815010              JUNCTION      0.00     0.00     0  00:00           0           0       0.000 gal
  7815011              JUNCTION      0.00     0.00     0  00:00           0           0       0.000 gal
  7815012              JUNCTION      0.00     0.00     0  00:00           0           0       0.000 gal
  7816005              JUNCTION      0.00     0.00     0  00:00           0           0       0.000 gal
  7816011              JUNCTION      0.00     0.00     0  00:00           0           0       0.000 gal
  7816012              JUNCTION      0.00     0.00     0  00:00           0           0       0.000 gal
  7816013              JUNCTION      0.00     0.00     0  00:00           0           0       0.000 gal
  7816014              JUNCTION      0.00     0.00     0  00:00           0           0       0.000 gal
  7816015              JUNCTION      0.00     0.00     0  00:00           0           0       0.000 gal
  7816016              JUNCTION      0.00     0.00     0  00:00           0           0       0.000 gal
  7816017              JUNCTION      0.00     0.00     0  00:00           0           0       0.000 gal
  7901003              JUNCTION      0.00     0.00     0  00:00           0           0       0.000 gal
  7901004              JUNCTION      0.00     0.00     0  00:00           0           0       0.000 gal
  7901005              JUNCTION      0.00     0.00     0  00:00           0           0       0.000 gal
  7901008              JUNCTION      0.00     0.00     0  00:00           0           0       0.000 gal
  7901009              JUNCTION      0.00     0.00     0  00:00           0           0       0.000 gal
  7901010              JUNCTION      0.00     0.00     0  00:00           0           0       0.000 gal
  7901011              JUNCTION      0.00     0.00     0  00:00           0           0       0.000 gal
  7901012              JUNCTION      0.00     0.00     0  00:00           0           0       0.000 gal
  7903003              JUNCTION      0.00     0.00     0  00:00           0           0       0.000 gal
  7903009              JUNCTION      0.00     0.00     0  00:00           0           0       0.000 gal
  7903010              JUNCTION      0.00     0.00     0  00:00           0           0       0.000 gal
  7903011              JUNCTION      0.00     0.00     0  00:00           0           0       0.000 gal
  7904001              JUNCTION      0.00     0.00     0  00:00           0           0       0.000 gal
  7904002              JUNCTION      0.00     0.00     0  00:00           0           0       0.000 gal
  7904003              JUNCTION      0.00     0.00     0  00:00           0           0       0.000 gal
  7904004              JUNCTION      0.00     0.00     0  00:00           0           0       0.000 gal
  7905003              JUNCTION      0.00     0.00     0  00:00           0           0       0.000 gal
  7906003              JUNCTION      0.00     0.00     0  00:00           0           0       0.000 gal
  7906004              JUNCTION      0.00     0.00     0  00:00           0           0       0.000 gal
  7907001              JUNCTION      0.00     0.00     0  00:00           0           0       0.000 gal
  7907002              JUNCTION      0.00     0.00     0  00:00           0           0       0.000 gal
  7907003              JUNCTION      0.00     0.00     0  00:00           0           0       0.000 gal
  7907004              JUNCTION      0.00     0.00     0  00:00           0           0       0.000 gal
  7907005              JUNCTION      0.00     0.00     0  00:00           0           0       0.000 gal
  8006001              JUNCTION      0.00     0.00     0  00:00           0           0       0.000 gal
  8006002              JUNCTION      0.00     0.00     0  00:00           0           0       0.000 gal
  8007001              JUNCTION      0.00     0.00     0  00:00           0           0       0.000 gal
  8007002              JUNCTION      0.00     0.00     0  00:00           0           0       0.000 gal
  8007003              JUNCTION      0.00     0.00     0  00:00           0           0       0.000 gal
  8007004              JUNCTION      0.00     0.00     0  00:00           0           0       0.000 gal
  8007005              JUNCTION      0.00     0.00     0  00:00           0           0       0.000 gal
  8008002              JUNCTION      0.00     0.00     0  00:00           0           0       0.000 gal
  8008003              JUNCTION      0.00     0.00     0  00:00           0           0       0.000 gal
  8008004              JUNCTION      0.00     0.00     0  00:00           0           0       0.000 gal
  8008005              JUNCTION      0.00     0.00     0  00:00           0           0       0.000 gal
  8008006              JUNCTION      0.00     0.00     0  00:00           0           0       0.000 gal
  8008007              JUNCTION      0.00     0.00     0  00:00           0           0       0.000 gal
  8008008              JUNCTION      0.00     0.00     0  00:00           0           0       0.000 gal
  8008009              JUNCTION      0.00     0.00     0  00:00           0           0       0.000 gal
  8009001              JUNCTION      0.00     0.00     0  00:00           0           0       0.000 gal
  8009002              JUNCTION      0.00     0.00     0  00:00           0           0       0.000 gal
  8009003              JUNCTION      0.00     0.00     0  00:00           0           0       0.000 gal
  8009008              JUNCTION      0.00     0.00     0  00:00           0           0       0.000 gal
  8009009              JUNCTION      0.00     0.00     0  00:00           0           0       0.000 gal
  8009012              JUNCTION      0.00     0.00     0  00:00           0           0       0.000 gal
  8016005              JUNCTION      0.00     0.00     0  00:00           0           0       0.000 gal
  8016006              JUNCTION      0.00     0.00     0  00:00           0           0       0.000 gal
  8016007              JUNCTION      0.00     0.00     0  00:00           0           0       0.000 gal
  8016011              JUNCTION      0.00     0.00     0  00:00           0           0       0.000 gal
  8016014              JUNCTION      0.00     0.00     0  00:00           0           0       0.000 gal
  7513023              OUTFALL       0.00     0.00     0  00:00           0           0       0.000 gal
  7513017              OUTFALL       0.00     0.00     0  00:00           0           0       0.000 gal
  
  
  **********************
  Node Surcharge Summary
  **********************
  
  No nodes were surcharged.
  
  
  *********************
  Node Flooding Summary
  *********************
  
  No nodes were flooded.
  
  
  ***********************
  Outfall Loading Summary
  ***********************
  
  -----------------------------------------------------------
                         Flow       Avg       Max       Total
                         Freq      Flow      Flow      Volume
  Outfall Node           Pcnt       CFS       CFS    10^6 gal
  -----------------------------------------------------------
  7513023             -nan(ind)      0.00      0.00       0.000
  7513017             -nan(ind)      0.00      0.00       0.000
  -----------------------------------------------------------
  System              -nan(ind)      0.00      0.00       0.000
  
  
  ********************
  Link Flow Summary
  ********************
  
  -----------------------------------------------------------------------------
                                 Maximum  Time of Max   Maximum    Max/    Max/
                                  |Flow|   Occurrence   |Veloc|    Full    Full
  Link                 Type          CFS  days hr:min    ft/sec    Flow   Depth
  -----------------------------------------------------------------------------
  7305003-7306005      CONDUIT      0.00     0  00:00      0.00    0.00    0.00
  7305004-7305001      CONDUIT      0.00     0  00:00      0.00    0.00    0.00
  7305007-7305004      CONDUIT      0.00     0  00:00      0.00    0.00    0.00
  7305008-7305007      CONDUIT      0.00     0  00:00      0.00    0.00    0.00
  7305010-7305024      CONDUIT      0.00     0  00:00      0.00    0.00    0.00
  7305015-7305010      CONDUIT      0.00     0  00:00      0.00    0.00    0.00
  7305019-7305015      CONDUIT      0.00     0  00:00      0.00    0.00    0.00
  7305022-7305025      CONDUIT      0.00     0  00:00      0.00    0.00    0.00
  7305023-7305022      CONDUIT      0.00     0  00:00      0.00    0.00    0.00
  7305024-7305003      CONDUIT      0.00     0  00:00      0.00    0.00    0.00
  7305025-7305019      CONDUIT      0.00     0  00:00      0.00    0.00    0.00
  7306005-7306006      CONDUIT      0.00     0  00:00      0.00    0.00    0.00
  7306006-7306007      CONDUIT      0.00     0  00:00      0.00    0.00    0.00
  7306007-7306008      CONDUIT      0.00     0  00:00      0.00    0.00    0.00
  7306008-7304026      CONDUIT      0.00     0  00:00      0.00    0.00    0.00
  7312003-7312012      CONDUIT      0.00     0  00:00      0.00    0.00    0.00
  7312005-7312003      CONDUIT      0.00     0  00:00      0.00    0.00    0.00
  7312006-7312005      CONDUIT      0.00     0  00:00      0.00    0.00    0.00
  7312012-7312013      CONDUIT      0.00     0  00:00      0.00    0.00    0.00
  7312013-7312014      CONDUIT      0.00     0  00:00      0.00    0.00    0.00
  7312014-7305003      CONDUIT      0.00     0  00:00      0.00    0.00    0.00
  8006001-8007005      CONDUIT      0.00     0  00:00      0.00    0.00    0.00
  8006002-8006001      CONDUIT      0.00     0  00:00      0.00    0.00    0.00
  8007001-8008009      CONDUIT      0.00     0  00:00      0.00    0.00    0.00
  8007002-8007001      CONDUIT      0.00     0  00:00      0.00    0.00    0.00
  8007003-8007002      CONDUIT      0.00     0  00:00      0.00    0.00    0.00
  8007004-8007003      CONDUIT      0.00     0  00:00      0.00    0.00    0.00
  8007005-8007004      CONDUIT      0.00     0  00:00      0.00    0.00    0.00
  8008002-7305022      CONDUIT      0.00     0  00:00      0.00    0.00    0.00
  8008003-8008002      CONDUIT      0.00     0  00:00      0.00    0.00    0.00
  8008004-8008003      CONDUIT      0.00     0  00:00      0.00    0.00    0.00
  8008005-8008004      CONDUIT      0.00     0  00:00      0.00    0.00    0.00
  8008006-8008005      CONDUIT      0.00     0  00:00      0.00    0.00    0.00
  8008007-8008006      CONDUIT      0.00     0  00:00      0.00    0.00    0.00
  8008008-8008007      CONDUIT      0.00     0  00:00      0.00    0.00    0.00
  8008009-8008008      CONDUIT      0.00     0  00:00      0.00    0.00    0.00
  8009001-8009012      CONDUIT      0.00     0  00:00      0.00    0.00    0.00
  8009002-8009001      CONDUIT      0.00     0  00:00      0.00    0.00    0.00
  8009003-8009002      CONDUIT      0.00     0  00:00      0.00    0.00    0.00
  8009008-8009003      CONDUIT      0.00     0  00:00      0.00    0.00    0.00
  8009009-8009008      CONDUIT      0.00     0  00:00      0.00    0.00    0.00
  8009012-7305023      CONDUIT      0.00     0  00:00      0.00    0.00    0.00
  8016005-8009009      CONDUIT      0.00     0  00:00      0.00    0.00    0.00
  8016006-8016005      CONDUIT      0.00     0  00:00      0.00    0.00    0.00
  8016007-8016006      CONDUIT      0.00     0  00:00      0.00    0.00    0.00
  8016011-8016007      CONDUIT      0.00     0  00:00      0.00    0.00    0.00
  8016014-8016011      CONDUIT      0.00     0  00:00      0.00    0.00    0.00
  7304008-7304010      CONDUIT      0.00     0  00:00      0.00    0.00    0.00
  7304010-7305007      CONDUIT      0.00     0  00:00      0.00    0.00    0.00
  7304026-7304027      CONDUIT      0.00     0  00:00      0.00    0.00    0.00
  7305001-7305002      CONDUIT      0.00     0  00:00      0.00    0.00    0.00
  7305002-7305003      CONDUIT      0.00     0  00:00      0.00    0.00    0.00
  7311002-7311001      CONDUIT      0.00     0  00:00      0.00    0.00    0.00
  7311003-7311002      CONDUIT      0.00     0  00:00      0.00    0.00    0.00
  7306009-7306005      CONDUIT      0.00     0  00:00      0.00    0.00    0.00
  7311001-7306009      CONDUIT      0.00     0  00:00      0.00    0.00    0.00
  7304028-7413012      CONDUIT      0.00     0  00:00      0.00    0.00    0.00
  7304029-7304028      CONDUIT      0.00     0  00:00      0.00    0.00    0.00
  7413011-7413010      CONDUIT      0.00     0  00:00      0.00    0.00    0.00
  7413012-7413011      CONDUIT      0.00     0  00:00      0.00    0.00    0.00
  7413010-7413009      CONDUIT      0.00     0  00:00      0.00    0.00    0.00
  7413009-7413004      CONDUIT      0.00     0  00:00      0.00    0.00    0.00
  7811001-7815012      CONDUIT      0.00     0  00:00      0.00    0.00    0.00
  7811002-7811001      CONDUIT      0.00     0  00:00      0.00    0.00    0.00
  7811003-7811002      CONDUIT      0.00     0  00:00      0.00    0.00    0.00
  7811004-7811003      CONDUIT      0.00     0  00:00      0.00    0.00    0.00
  7811005-7811004      CONDUIT      0.00     0  00:00      0.00    0.00    0.00
  7811006-7811005      CONDUIT      0.00     0  00:00      0.00    0.00    0.00
  7815001-7816013      CONDUIT      0.00     0  00:00      0.00    0.00    0.00
  7815002-7815001      CONDUIT      0.00     0  00:00      0.00    0.00    0.00
  7815003-7815002      CONDUIT      0.00     0  00:00      0.00    0.00    0.00
  7815009-7815003      CONDUIT      0.00     0  00:00      0.00    0.00    0.00
  7815010-7815009      CONDUIT      0.00     0  00:00      0.00    0.00    0.00
  7815011-7815010      CONDUIT      0.00     0  00:00      0.00    0.00    0.00
  7815012-7815011      CONDUIT      0.00     0  00:00      0.00    0.00    0.00
  7816013-7816014      CONDUIT      0.00     0  00:00      0.00    0.00    0.00
  10703001-10814004    CONDUIT      0.00     0  00:00      0.00    0.00    0.00
  10703002-10703001    CONDUIT      0.00     0  00:00      0.00    0.00    0.00
  10703003-10703002    CONDUIT      0.00     0  00:00      0.00    0.00    0.00
  10706001-10703003    CONDUIT      0.00     0  00:00      0.00    0.00    0.00
  10706002-10706001    CONDUIT      0.00     0  00:00      0.00    0.00    0.00
  10706003-10706002    CONDUIT      0.00     0  00:00      0.00    0.00    0.00
  10706004-10706003    CONDUIT      0.00     0  00:00      0.00    0.00    0.00
  10711001-10712006    CONDUIT      0.00     0  00:00      0.00    0.00    0.00
  10711002-10711001    CONDUIT      0.00     0  00:00      0.00    0.00    0.00
  10711003-10711002    CONDUIT      0.00     0  00:00      0.00    0.00    0.00
  10711004-10711003    CONDUIT      0.00     0  00:00      0.00    0.00    0.00
  10711005-10711004    CONDUIT      0.00     0  00:00      0.00    0.00    0.00
  10711006-10711005    CONDUIT      0.00     0  00:00      0.00    0.00    0.00
  10712005-10706004    CONDUIT      0.00     0  00:00      0.00    0.00    0.00
  10712006-10712005    CONDUIT      0.00     0  00:00      0.00    0.00    0.00
  10712007-10712006    CONDUIT      0.00     0  00:00      0.00    0.00    0.00
  10712008-10712007    CONDUIT      0.00     0  00:00      0.00    0.00    0.00
  10713001-10712008    CONDUIT      0.00     0  00:00      0.00    0.00    0.00
  10713002-10713001    CONDUIT      0.00     0  00:00      0.00    0.00    0.00
  10713003-10713002    CONDUIT      0.00     0  00:00      0.00    0.00    0.00
  10807001-10808001    CONDUIT      0.00     0  00:00      0.00    0.00    0.00
  10807003-10807001    CONDUIT      0.00     0  00:00      0.00    0.00    0.00
  10807004-10807003    CONDUIT      0.00     0  00:00      0.00    0.00    0.00
  10808001-7905003     CONDUIT      0.00     0  00:00      0.00    0.00    0.00
  10810001-10807004    CONDUIT      0.00     0  00:00      0.00    0.00    0.00
  10810002-10810001    CONDUIT      0.00     0  00:00      0.00    0.00    0.00
  10810003-10810001    CONDUIT      0.00     0  00:00      0.00    0.00    0.00
  10810004-10810003    CONDUIT      0.00     0  00:00      0.00    0.00    0.00
  10811001-10810004    CONDUIT      0.00     0  00:00      0.00    0.00    0.00
  10811003-10811001    CONDUIT      0.00     0  00:00      0.00    0.00    0.00
  10811004-10811003    CONDUIT      0.00     0  00:00      0.00    0.00    0.00
  10814001-10811004    CONDUIT      0.00     0  00:00      0.00    0.00    0.00
  10814002-10814007    CONDUIT      0.00     0  00:00      0.00    0.00    0.00
  10814003-10814002    CONDUIT      0.00     0  00:00      0.00    0.00    0.00
  10814004-10814003    CONDUIT      0.00     0  00:00      0.00    0.00    0.00
  10814007-10814001    CONDUIT      0.00     0  00:00      0.00    0.00    0.00
  7816014-7816015      CONDUIT      0.00     0  00:00      0.00    0.00    0.00
  7816015-7816016      CONDUIT      0.00     0  00:00      0.00    0.00    0.00
  7816016-7816017      CONDUIT      0.00     0  00:00      0.00    0.00    0.00
  7816017-7816011      CONDUIT      0.00     0  00:00      0.00    0.00    0.00
  7901008-7816017      CONDUIT      0.00     0  00:00      0.00    0.00    0.00
  7901009-7901008      CONDUIT      0.00     0  00:00      0.00    0.00    0.00
  7901010-7901009      CONDUIT      0.00     0  00:00      0.00    0.00    0.00
  7901011-7901012      CONDUIT      0.00     0  00:00      0.00    0.00    0.00
  7901012-7901010      CONDUIT      0.00     0  00:00      0.00    0.00    0.00
  7903003-7906004      CONDUIT      0.00     0  00:00      0.00    0.00    0.00
  7903009-7903003      CONDUIT      0.00     0  00:00      0.00    0.00    0.00
  7903010-7903009      CONDUIT      0.00     0  00:00      0.00    0.00    0.00
  7903011-7903010      CONDUIT      0.00     0  00:00      0.00    0.00    0.00
  7904001-7903011      CONDUIT      0.00     0  00:00      0.00    0.00    0.00
  7904002-7904001      CONDUIT      0.00     0  00:00      0.00    0.00    0.00
  7904003-7904002      CONDUIT      0.00     0  00:00      0.00    0.00    0.00
  7904004-7904001      CONDUIT      0.00     0  00:00      0.00    0.00    0.00
  7905003-7904003      CONDUIT      0.00     0  00:00      0.00    0.00    0.00
  7906003-7907005      CONDUIT      0.00     0  00:00      0.00    0.00    0.00
  7906004-7906003      CONDUIT      0.00     0  00:00      0.00    0.00    0.00
  7907001-7901011      CONDUIT      0.00     0  00:00      0.00    0.00    0.00
  7907002-7907001      CONDUIT      0.00     0  00:00      0.00    0.00    0.00
  7907003-7907002      CONDUIT      0.00     0  00:00      0.00    0.00    0.00
  7907004-7907003      CONDUIT      0.00     0  00:00      0.00    0.00    0.00
  7907005-7907004      CONDUIT      0.00     0  00:00      0.00    0.00    0.00
  7304027-7413024      CONDUIT      0.00     0  00:00      0.00    0.00    0.00
  7404003-7513012      CONDUIT      0.00     0  00:00      0.00    0.00    0.00
  7404004-7404003      CONDUIT      0.00     0  00:00      0.00    0.00    0.00
  7404005-7404004      CONDUIT      0.00     0  00:00      0.00    0.00    0.00
  7411026-7411027      CONDUIT      0.00     0  00:00      0.00    0.00    0.00
  7411027-7411028      CONDUIT      0.00     0  00:00      0.00    0.00    0.00
  7411028-7411029      CONDUIT      0.00     0  00:00      0.00    0.00    0.00
  7411029-7411030      CONDUIT      0.00     0  00:00      0.00    0.00    0.00
  7411030-7411031      CONDUIT      0.00     0  00:00      0.00    0.00    0.00
  7413024-7413025      CONDUIT      0.00     0  00:00      0.00    0.00    0.00
  7413025-7414003      CONDUIT      0.00     0  00:00      0.00    0.00    0.00
  7414001-7411030      CONDUIT      0.00     0  00:00      0.00    0.00    0.00
  7414003-7414001      CONDUIT      0.00     0  00:00      0.00    0.00    0.00
  7513005-7513018      CONDUIT      0.00     0  00:00      0.00    0.00    0.00
  7513006-7513005      CONDUIT      0.00     0  00:00      0.00    0.00    0.00
  7513007-7513006      CONDUIT      0.00     0  00:00      0.00    0.00    0.00
  7513008-7513007      CONDUIT      0.00     0  00:00      0.00    0.00    0.00
  7513009-7513008      CONDUIT      0.00     0  00:00      0.00    0.00    0.00
  7513010-7513009      CONDUIT      0.00     0  00:00      0.00    0.00    0.00
  7513012-7513007      CONDUIT      0.00     0  00:00      0.00    0.00    0.00
  7513018-7513017      CONDUIT      0.00     0  00:00      0.00    0.00    0.00
  7513019-7513018      CONDUIT      0.00     0  00:00      0.00    0.00    0.00
  7513020-7513019      CONDUIT      0.00     0  00:00      0.00    0.00    0.00
  7816005-7513010      CONDUIT      0.00     0  00:00      0.00    0.00    0.00
  7816011-7816012      CONDUIT      0.00     0  00:00      0.00    0.00    0.00
  7816012-7513020      CONDUIT      0.00     0  00:00      0.00    0.00    0.00
  7901003-7404005      CONDUIT      0.00     0  00:00      0.00    0.00    0.00
  7901004-7901003      CONDUIT      0.00     0  00:00      0.00    0.00    0.00
  7901005-7901004      CONDUIT      0.00     0  00:00      0.00    0.00    0.00
  7411007-7411026      CONDUIT      0.00     0  00:00      0.00    0.00    0.00
  7413003-7414002      CONDUIT      0.00     0  00:00      0.00    0.00    0.00
  7413002-7413003      CONDUIT      0.00     0  00:00      0.00    0.00    0.00
  7413004-7413002      CONDUIT      0.00     0  00:00      0.00    0.00    0.00
  7414002-7414003      CONDUIT      0.00     0  00:00      0.00    0.00    0.00
  7411021-7513023      CONDUIT      0.00     0  00:00      0.00    0.00    0.00
  7411005-7411007      CONDUIT      0.00     0  00:00      0.00    0.00    0.00
  PUMP@7411031-7411021 PUMP         0.00     0  00:00              0.00
  
  
  ***************************
  Flow Classification Summary
  ***************************
  
  -------------------------------------------------------------------------------------
                      Adjusted    ---------- Fraction of Time in Flow Class ---------- 
                       /Actual         Up    Down  Sub   Sup   Up    Down  Norm  Inlet 
  Conduit               Length    Dry  Dry   Dry   Crit  Crit  Crit  Crit  Ltd   Ctrl  
  -------------------------------------------------------------------------------------
  7305003-7306005         4.67   -nan(ind)  -nan(ind)  -nan(ind)  -nan(ind)  -nan(ind)  -nan(ind)  -nan(ind)  -nan(ind)  -nan(ind)
  7305004-7305001         1.94   -nan(ind)  -nan(ind)  -nan(ind)  -nan(ind)  -nan(ind)  -nan(ind)  -nan(ind)  -nan(ind)  -nan(ind)
  7305007-7305004         4.72   -nan(ind)  -nan(ind)  -nan(ind)  -nan(ind)  -nan(ind)  -nan(ind)  -nan(ind)  -nan(ind)  -nan(ind)
  7305008-7305007         2.75   -nan(ind)  -nan(ind)  -nan(ind)  -nan(ind)  -nan(ind)  -nan(ind)  -nan(ind)  -nan(ind)  -nan(ind)
  7305010-7305024         1.25   -nan(ind)  -nan(ind)  -nan(ind)  -nan(ind)  -nan(ind)  -nan(ind)  -nan(ind)  -nan(ind)  -nan(ind)
  7305015-7305010         2.58   -nan(ind)  -nan(ind)  -nan(ind)  -nan(ind)  -nan(ind)  -nan(ind)  -nan(ind)  -nan(ind)  -nan(ind)
  7305019-7305015         3.57   -nan(ind)  -nan(ind)  -nan(ind)  -nan(ind)  -nan(ind)  -nan(ind)  -nan(ind)  -nan(ind)  -nan(ind)
  7305022-7305025         5.59   -nan(ind)  -nan(ind)  -nan(ind)  -nan(ind)  -nan(ind)  -nan(ind)  -nan(ind)  -nan(ind)  -nan(ind)
  7305023-7305022         5.90   -nan(ind)  -nan(ind)  -nan(ind)  -nan(ind)  -nan(ind)  -nan(ind)  -nan(ind)  -nan(ind)  -nan(ind)
  7305024-7305003         1.79   -nan(ind)  -nan(ind)  -nan(ind)  -nan(ind)  -nan(ind)  -nan(ind)  -nan(ind)  -nan(ind)  -nan(ind)
  7305025-7305019         7.02   -nan(ind)  -nan(ind)  -nan(ind)  -nan(ind)  -nan(ind)  -nan(ind)  -nan(ind)  -nan(ind)  -nan(ind)
  7306005-7306006         2.27   -nan(ind)  -nan(ind)  -nan(ind)  -nan(ind)  -nan(ind)  -nan(ind)  -nan(ind)  -nan(ind)  -nan(ind)
  7306006-7306007         1.69   -nan(ind)  -nan(ind)  -nan(ind)  -nan(ind)  -nan(ind)  -nan(ind)  -nan(ind)  -nan(ind)  -nan(ind)
  7306007-7306008         1.69   -nan(ind)  -nan(ind)  -nan(ind)  -nan(ind)  -nan(ind)  -nan(ind)  -nan(ind)  -nan(ind)  -nan(ind)
  7306008-7304026         1.53   -nan(ind)  -nan(ind)  -nan(ind)  -nan(ind)  -nan(ind)  -nan(ind)  -nan(ind)  -nan(ind)  -nan(ind)
  7312003-7312012         1.40   -nan(ind)  -nan(ind)  -nan(ind)  -nan(ind)  -nan(ind)  -nan(ind)  -nan(ind)  -nan(ind)  -nan(ind)
  7312005-7312003         3.43   -nan(ind)  -nan(ind)  -nan(ind)  -nan(ind)  -nan(ind)  -nan(ind)  -nan(ind)  -nan(ind)  -nan(ind)
  7312006-7312005         4.38   -nan(ind)  -nan(ind)  -nan(ind)  -nan(ind)  -nan(ind)  -nan(ind)  -nan(ind)  -nan(ind)  -nan(ind)
  7312012-7312013         8.13   -nan(ind)  -nan(ind)  -nan(ind)  -nan(ind)  -nan(ind)  -nan(ind)  -nan(ind)  -nan(ind)  -nan(ind)
  7312013-7312014         2.61   -nan(ind)  -nan(ind)  -nan(ind)  -nan(ind)  -nan(ind)  -nan(ind)  -nan(ind)  -nan(ind)  -nan(ind)
  7312014-7305003         1.90   -nan(ind)  -nan(ind)  -nan(ind)  -nan(ind)  -nan(ind)  -nan(ind)  -nan(ind)  -nan(ind)  -nan(ind)
  8006001-8007005         2.71   -nan(ind)  -nan(ind)  -nan(ind)  -nan(ind)  -nan(ind)  -nan(ind)  -nan(ind)  -nan(ind)  -nan(ind)
  8006002-8006001         4.59   -nan(ind)  -nan(ind)  -nan(ind)  -nan(ind)  -nan(ind)  -nan(ind)  -nan(ind)  -nan(ind)  -nan(ind)
  8007001-8008009         4.00   -nan(ind)  -nan(ind)  -nan(ind)  -nan(ind)  -nan(ind)  -nan(ind)  -nan(ind)  -nan(ind)  -nan(ind)
  8007002-8007001         3.93   -nan(ind)  -nan(ind)  -nan(ind)  -nan(ind)  -nan(ind)  -nan(ind)  -nan(ind)  -nan(ind)  -nan(ind)
  8007003-8007002         1.99   -nan(ind)  -nan(ind)  -nan(ind)  -nan(ind)  -nan(ind)  -nan(ind)  -nan(ind)  -nan(ind)  -nan(ind)
  8007004-8007003         2.94   -nan(ind)  -nan(ind)  -nan(ind)  -nan(ind)  -nan(ind)  -nan(ind)  -nan(ind)  -nan(ind)  -nan(ind)
  8007005-8007004         1.89   -nan(ind)  -nan(ind)  -nan(ind)  -nan(ind)  -nan(ind)  -nan(ind)  -nan(ind)  -nan(ind)  -nan(ind)
  8008002-7305022         5.97   -nan(ind)  -nan(ind)  -nan(ind)  -nan(ind)  -nan(ind)  -nan(ind)  -nan(ind)  -nan(ind)  -nan(ind)
  8008003-8008002         4.64   -nan(ind)  -nan(ind)  -nan(ind)  -nan(ind)  -nan(ind)  -nan(ind)  -nan(ind)  -nan(ind)  -nan(ind)
  8008004-8008003         2.85   -nan(ind)  -nan(ind)  -nan(ind)  -nan(ind)  -nan(ind)  -nan(ind)  -nan(ind)  -nan(ind)  -nan(ind)
  8008005-8008004         3.79   -nan(ind)  -nan(ind)  -nan(ind)  -nan(ind)  -nan(ind)  -nan(ind)  -nan(ind)  -nan(ind)  -nan(ind)
  8008006-8008005        11.78   -nan(ind)  -nan(ind)  -nan(ind)  -nan(ind)  -nan(ind)  -nan(ind)  -nan(ind)  -nan(ind)  -nan(ind)
  8008007-8008006         3.31   -nan(ind)  -nan(ind)  -nan(ind)  -nan(ind)  -nan(ind)  -nan(ind)  -nan(ind)  -nan(ind)  -nan(ind)
  8008008-8008007         2.18   -nan(ind)  -nan(ind)  -nan(ind)  -nan(ind)  -nan(ind)  -nan(ind)  -nan(ind)  -nan(ind)  -nan(ind)
  8008009-8008008         3.61   -nan(ind)  -nan(ind)  -nan(ind)  -nan(ind)  -nan(ind)  -nan(ind)  -nan(ind)  -nan(ind)  -nan(ind)
  8009001-8009012         4.36   -nan(ind)  -nan(ind)  -nan(ind)  -nan(ind)  -nan(ind)  -nan(ind)  -nan(ind)  -nan(ind)  -nan(ind)
  8009002-8009001         5.40   -nan(ind)  -nan(ind)  -nan(ind)  -nan(ind)  -nan(ind)  -nan(ind)  -nan(ind)  -nan(ind)  -nan(ind)
  8009003-8009002         1.86   -nan(ind)  -nan(ind)  -nan(ind)  -nan(ind)  -nan(ind)  -nan(ind)  -nan(ind)  -nan(ind)  -nan(ind)
  8009008-8009003         4.17   -nan(ind)  -nan(ind)  -nan(ind)  -nan(ind)  -nan(ind)  -nan(ind)  -nan(ind)  -nan(ind)  -nan(ind)
  8009009-8009008         2.30   -nan(ind)  -nan(ind)  -nan(ind)  -nan(ind)  -nan(ind)  -nan(ind)  -nan(ind)  -nan(ind)  -nan(ind)
  8009012-7305023         3.01   -nan(ind)  -nan(ind)  -nan(ind)  -nan(ind)  -nan(ind)  -nan(ind)  -nan(ind)  -nan(ind)  -nan(ind)
  8016005-8009009         5.10   -nan(ind)  -nan(ind)  -nan(ind)  -nan(ind)  -nan(ind)  -nan(ind)  -nan(ind)  -nan(ind)  -nan(ind)
  8016006-8016005         2.45   -nan(ind)  -nan(ind)  -nan(ind)  -nan(ind)  -nan(ind)  -nan(ind)  -nan(ind)  -nan(ind)  -nan(ind)
  8016007-8016006         2.05   -nan(ind)  -nan(ind)  -nan(ind)  -nan(ind)  -nan(ind)  -nan(ind)  -nan(ind)  -nan(ind)  -nan(ind)
  8016011-8016007         1.92   -nan(ind)  -nan(ind)  -nan(ind)  -nan(ind)  -nan(ind)  -nan(ind)  -nan(ind)  -nan(ind)  -nan(ind)
  8016014-8016011         1.47   -nan(ind)  -nan(ind)  -nan(ind)  -nan(ind)  -nan(ind)  -nan(ind)  -nan(ind)  -nan(ind)  -nan(ind)
  7304008-7304010         1.36   -nan(ind)  -nan(ind)  -nan(ind)  -nan(ind)  -nan(ind)  -nan(ind)  -nan(ind)  -nan(ind)  -nan(ind)
  7304010-7305007         1.11   -nan(ind)  -nan(ind)  -nan(ind)  -nan(ind)  -nan(ind)  -nan(ind)  -nan(ind)  -nan(ind)  -nan(ind)
  7304026-7304027         1.74   -nan(ind)  -nan(ind)  -nan(ind)  -nan(ind)  -nan(ind)  -nan(ind)  -nan(ind)  -nan(ind)  -nan(ind)
  7305001-7305002         1.64   -nan(ind)  -nan(ind)  -nan(ind)  -nan(ind)  -nan(ind)  -nan(ind)  -nan(ind)  -nan(ind)  -nan(ind)
  7305002-7305003         2.97   -nan(ind)  -nan(ind)  -nan(ind)  -nan(ind)  -nan(ind)  -nan(ind)  -nan(ind)  -nan(ind)  -nan(ind)
  7311002-7311001         1.57   -nan(ind)  -nan(ind)  -nan(ind)  -nan(ind)  -nan(ind)  -nan(ind)  -nan(ind)  -nan(ind)  -nan(ind)
  7311003-7311002         6.11   -nan(ind)  -nan(ind)  -nan(ind)  -nan(ind)  -nan(ind)  -nan(ind)  -nan(ind)  -nan(ind)  -nan(ind)
  7306009-7306005         5.02   -nan(ind)  -nan(ind)  -nan(ind)  -nan(ind)  -nan(ind)  -nan(ind)  -nan(ind)  -nan(ind)  -nan(ind)
  7311001-7306009         4.37   -nan(ind)  -nan(ind)  -nan(ind)  -nan(ind)  -nan(ind)  -nan(ind)  -nan(ind)  -nan(ind)  -nan(ind)
  7304028-7413012         1.86   -nan(ind)  -nan(ind)  -nan(ind)  -nan(ind)  -nan(ind)  -nan(ind)  -nan(ind)  -nan(ind)  -nan(ind)
  7304029-7304028        38.85   -nan(ind)  -nan(ind)  -nan(ind)  -nan(ind)  -nan(ind)  -nan(ind)  -nan(ind)  -nan(ind)  -nan(ind)
  7413011-7413010         1.18   -nan(ind)  -nan(ind)  -nan(ind)  -nan(ind)  -nan(ind)  -nan(ind)  -nan(ind)  -nan(ind)  -nan(ind)
  7413012-7413011         2.14   -nan(ind)  -nan(ind)  -nan(ind)  -nan(ind)  -nan(ind)  -nan(ind)  -nan(ind)  -nan(ind)  -nan(ind)
  7413010-7413009         3.14   -nan(ind)  -nan(ind)  -nan(ind)  -nan(ind)  -nan(ind)  -nan(ind)  -nan(ind)  -nan(ind)  -nan(ind)
  7413009-7413004         3.98   -nan(ind)  -nan(ind)  -nan(ind)  -nan(ind)  -nan(ind)  -nan(ind)  -nan(ind)  -nan(ind)  -nan(ind)
  7811001-7815012         1.24   -nan(ind)  -nan(ind)  -nan(ind)  -nan(ind)  -nan(ind)  -nan(ind)  -nan(ind)  -nan(ind)  -nan(ind)
  7811002-7811001         1.22   -nan(ind)  -nan(ind)  -nan(ind)  -nan(ind)  -nan(ind)  -nan(ind)  -nan(ind)  -nan(ind)  -nan(ind)
  7811003-7811002         2.84   -nan(ind)  -nan(ind)  -nan(ind)  -nan(ind)  -nan(ind)  -nan(ind)  -nan(ind)  -nan(ind)  -nan(ind)
  7811004-7811003         2.89   -nan(ind)  -nan(ind)  -nan(ind)  -nan(ind)  -nan(ind)  -nan(ind)  -nan(ind)  -nan(ind)  -nan(ind)
  7811005-7811004         7.44   -nan(ind)  -nan(ind)  -nan(ind)  -nan(ind)  -nan(ind)  -nan(ind)  -nan(ind)  -nan(ind)  -nan(ind)
  7811006-7811005         1.60   -nan(ind)  -nan(ind)  -nan(ind)  -nan(ind)  -nan(ind)  -nan(ind)  -nan(ind)  -nan(ind)  -nan(ind)
  7815001-7816013         2.02   -nan(ind)  -nan(ind)  -nan(ind)  -nan(ind)  -nan(ind)  -nan(ind)  -nan(ind)  -nan(ind)  -nan(ind)
  7815002-7815001         2.32   -nan(ind)  -nan(ind)  -nan(ind)  -nan(ind)  -nan(ind)  -nan(ind)  -nan(ind)  -nan(ind)  -nan(ind)
  7815003-7815002         3.27   -nan(ind)  -nan(ind)  -nan(ind)  -nan(ind)  -nan(ind)  -nan(ind)  -nan(ind)  -nan(ind)  -nan(ind)
  7815009-7815003        19.15   -nan(ind)  -nan(ind)  -nan(ind)  -nan(ind)  -nan(ind)  -nan(ind)  -nan(ind)  -nan(ind)  -nan(ind)
  7815010-7815009         6.65   -nan(ind)  -nan(ind)  -nan(ind)  -nan(ind)  -nan(ind)  -nan(ind)  -nan(ind)  -nan(ind)  -nan(ind)
  7815011-7815010         2.29   -nan(ind)  -nan(ind)  -nan(ind)  -nan(ind)  -nan(ind)  -nan(ind)  -nan(ind)  -nan(ind)  -nan(ind)
  7815012-7815011         1.71   -nan(ind)  -nan(ind)  -nan(ind)  -nan(ind)  -nan(ind)  -nan(ind)  -nan(ind)  -nan(ind)  -nan(ind)
  7816013-7816014         1.84   -nan(ind)  -nan(ind)  -nan(ind)  -nan(ind)  -nan(ind)  -nan(ind)  -nan(ind)  -nan(ind)  -nan(ind)
  10703001-10814004       2.29   -nan(ind)  -nan(ind)  -nan(ind)  -nan(ind)  -nan(ind)  -nan(ind)  -nan(ind)  -nan(ind)  -nan(ind)
  10703002-10703001       3.56   -nan(ind)  -nan(ind)  -nan(ind)  -nan(ind)  -nan(ind)  -nan(ind)  -nan(ind)  -nan(ind)  -nan(ind)
  10703003-10703002       1.79   -nan(ind)  -nan(ind)  -nan(ind)  -nan(ind)  -nan(ind)  -nan(ind)  -nan(ind)  -nan(ind)  -nan(ind)
  10706001-10703003       2.54   -nan(ind)  -nan(ind)  -nan(ind)  -nan(ind)  -nan(ind)  -nan(ind)  -nan(ind)  -nan(ind)  -nan(ind)
  10706002-10706001       3.01   -nan(ind)  -nan(ind)  -nan(ind)  -nan(ind)  -nan(ind)  -nan(ind)  -nan(ind)  -nan(ind)  -nan(ind)
  10706003-10706002       3.57   -nan(ind)  -nan(ind)  -nan(ind)  -nan(ind)  -nan(ind)  -nan(ind)  -nan(ind)  -nan(ind)  -nan(ind)
  10706004-10706003       6.27   -nan(ind)  -nan(ind)  -nan(ind)  -nan(ind)  -nan(ind)  -nan(ind)  -nan(ind)  -nan(ind)  -nan(ind)
  10711001-10712006       9.35   -nan(ind)  -nan(ind)  -nan(ind)  -nan(ind)  -nan(ind)  -nan(ind)  -nan(ind)  -nan(ind)  -nan(ind)
  10711002-10711001       4.46   -nan(ind)  -nan(ind)  -nan(ind)  -nan(ind)  -nan(ind)  -nan(ind)  -nan(ind)  -nan(ind)  -nan(ind)
  10711003-10711002       3.88   -nan(ind)  -nan(ind)  -nan(ind)  -nan(ind)  -nan(ind)  -nan(ind)  -nan(ind)  -nan(ind)  -nan(ind)
  10711004-10711003       3.83   -nan(ind)  -nan(ind)  -nan(ind)  -nan(ind)  -nan(ind)  -nan(ind)  -nan(ind)  -nan(ind)  -nan(ind)
  10711005-10711004       6.47   -nan(ind)  -nan(ind)  -nan(ind)  -nan(ind)  -nan(ind)  -nan(ind)  -nan(ind)  -nan(ind)  -nan(ind)
  10711006-10711005      10.93   -nan(ind)  -nan(ind)  -nan(ind)  -nan(ind)  -nan(ind)  -nan(ind)  -nan(ind)  -nan(ind)  -nan(ind)
  10712005-10706004       2.19   -nan(ind)  -nan(ind)  -nan(ind)  -nan(ind)  -nan(ind)  -nan(ind)  -nan(ind)  -nan(ind)  -nan(ind)
  10712006-10712005       2.28   -nan(ind)  -nan(ind)  -nan(ind)  -nan(ind)  -nan(ind)  -nan(ind)  -nan(ind)  -nan(ind)  -nan(ind)
  10712007-10712006       8.89   -nan(ind)  -nan(ind)  -nan(ind)  -nan(ind)  -nan(ind)  -nan(ind)  -nan(ind)  -nan(ind)  -nan(ind)
  10712008-10712007       4.12   -nan(ind)  -nan(ind)  -nan(ind)  -nan(ind)  -nan(ind)  -nan(ind)  -nan(ind)  -nan(ind)  -nan(ind)
  10713001-10712008       4.88   -nan(ind)  -nan(ind)  -nan(ind)  -nan(ind)  -nan(ind)  -nan(ind)  -nan(ind)  -nan(ind)  -nan(ind)
  10713002-10713001       8.94   -nan(ind)  -nan(ind)  -nan(ind)  -nan(ind)  -nan(ind)  -nan(ind)  -nan(ind)  -nan(ind)  -nan(ind)
  10713003-10713002       5.85   -nan(ind)  -nan(ind)  -nan(ind)  -nan(ind)  -nan(ind)  -nan(ind)  -nan(ind)  -nan(ind)  -nan(ind)
  10807001-10808001       1.00   -nan(ind)  -nan(ind)  -nan(ind)  -nan(ind)  -nan(ind)  -nan(ind)  -nan(ind)  -nan(ind)  -nan(ind)
  10807003-10807001       4.42   -nan(ind)  -nan(ind)  -nan(ind)  -nan(ind)  -nan(ind)  -nan(ind)  -nan(ind)  -nan(ind)  -nan(ind)
  10807004-10807003       8.36   -nan(ind)  -nan(ind)  -nan(ind)  -nan(ind)  -nan(ind)  -nan(ind)  -nan(ind)  -nan(ind)  -nan(ind)
  10808001-7905003        2.45   -nan(ind)  -nan(ind)  -nan(ind)  -nan(ind)  -nan(ind)  -nan(ind)  -nan(ind)  -nan(ind)  -nan(ind)
  10810001-10807004       1.52   -nan(ind)  -nan(ind)  -nan(ind)  -nan(ind)  -nan(ind)  -nan(ind)  -nan(ind)  -nan(ind)  -nan(ind)
  10810002-10810001       4.72   -nan(ind)  -nan(ind)  -nan(ind)  -nan(ind)  -nan(ind)  -nan(ind)  -nan(ind)  -nan(ind)  -nan(ind)
  10810003-10810001       2.51   -nan(ind)  -nan(ind)  -nan(ind)  -nan(ind)  -nan(ind)  -nan(ind)  -nan(ind)  -nan(ind)  -nan(ind)
  10810004-10810003       1.43   -nan(ind)  -nan(ind)  -nan(ind)  -nan(ind)  -nan(ind)  -nan(ind)  -nan(ind)  -nan(ind)  -nan(ind)
  10811001-10810004       2.10   -nan(ind)  -nan(ind)  -nan(ind)  -nan(ind)  -nan(ind)  -nan(ind)  -nan(ind)  -nan(ind)  -nan(ind)
  10811003-10811001       2.13   -nan(ind)  -nan(ind)  -nan(ind)  -nan(ind)  -nan(ind)  -nan(ind)  -nan(ind)  -nan(ind)  -nan(ind)
  10811004-10811003       2.36   -nan(ind)  -nan(ind)  -nan(ind)  -nan(ind)  -nan(ind)  -nan(ind)  -nan(ind)  -nan(ind)  -nan(ind)
  10814001-10811004       4.10   -nan(ind)  -nan(ind)  -nan(ind)  -nan(ind)  -nan(ind)  -nan(ind)  -nan(ind)  -nan(ind)  -nan(ind)
  10814002-10814007      13.97   -nan(ind)  -nan(ind)  -nan(ind)  -nan(ind)  -nan(ind)  -nan(ind)  -nan(ind)  -nan(ind)  -nan(ind)
  10814003-10814002       4.07   -nan(ind)  -nan(ind)  -nan(ind)  -nan(ind)  -nan(ind)  -nan(ind)  -nan(ind)  -nan(ind)  -nan(ind)
  10814004-10814003       4.81   -nan(ind)  -nan(ind)  -nan(ind)  -nan(ind)  -nan(ind)  -nan(ind)  -nan(ind)  -nan(ind)  -nan(ind)
  10814007-10814001       3.30   -nan(ind)  -nan(ind)  -nan(ind)  -nan(ind)  -nan(ind)  -nan(ind)  -nan(ind)  -nan(ind)  -nan(ind)
  7816014-7816015         3.40   -nan(ind)  -nan(ind)  -nan(ind)  -nan(ind)  -nan(ind)  -nan(ind)  -nan(ind)  -nan(ind)  -nan(ind)
  7816015-7816016         4.86   -nan(ind)  -nan(ind)  -nan(ind)  -nan(ind)  -nan(ind)  -nan(ind)  -nan(ind)  -nan(ind)  -nan(ind)
  7816016-7816017         8.37   -nan(ind)  -nan(ind)  -nan(ind)  -nan(ind)  -nan(ind)  -nan(ind)  -nan(ind)  -nan(ind)  -nan(ind)
  7816017-7816011         2.01   -nan(ind)  -nan(ind)  -nan(ind)  -nan(ind)  -nan(ind)  -nan(ind)  -nan(ind)  -nan(ind)  -nan(ind)
  7901008-7816017         2.53   -nan(ind)  -nan(ind)  -nan(ind)  -nan(ind)  -nan(ind)  -nan(ind)  -nan(ind)  -nan(ind)  -nan(ind)
  7901009-7901008         2.30   -nan(ind)  -nan(ind)  -nan(ind)  -nan(ind)  -nan(ind)  -nan(ind)  -nan(ind)  -nan(ind)  -nan(ind)
  7901010-7901009         2.26   -nan(ind)  -nan(ind)  -nan(ind)  -nan(ind)  -nan(ind)  -nan(ind)  -nan(ind)  -nan(ind)  -nan(ind)
  7901011-7901012         2.99   -nan(ind)  -nan(ind)  -nan(ind)  -nan(ind)  -nan(ind)  -nan(ind)  -nan(ind)  -nan(ind)  -nan(ind)
  7901012-7901010         2.90   -nan(ind)  -nan(ind)  -nan(ind)  -nan(ind)  -nan(ind)  -nan(ind)  -nan(ind)  -nan(ind)  -nan(ind)
  7903003-7906004         2.29   -nan(ind)  -nan(ind)  -nan(ind)  -nan(ind)  -nan(ind)  -nan(ind)  -nan(ind)  -nan(ind)  -nan(ind)
  7903009-7903003         6.31   -nan(ind)  -nan(ind)  -nan(ind)  -nan(ind)  -nan(ind)  -nan(ind)  -nan(ind)  -nan(ind)  -nan(ind)
  7903010-7903009         2.74   -nan(ind)  -nan(ind)  -nan(ind)  -nan(ind)  -nan(ind)  -nan(ind)  -nan(ind)  -nan(ind)  -nan(ind)
  7903011-7903010         2.73   -nan(ind)  -nan(ind)  -nan(ind)  -nan(ind)  -nan(ind)  -nan(ind)  -nan(ind)  -nan(ind)  -nan(ind)
  7904001-7903011         2.03   -nan(ind)  -nan(ind)  -nan(ind)  -nan(ind)  -nan(ind)  -nan(ind)  -nan(ind)  -nan(ind)  -nan(ind)
  7904002-7904001         5.66   -nan(ind)  -nan(ind)  -nan(ind)  -nan(ind)  -nan(ind)  -nan(ind)  -nan(ind)  -nan(ind)  -nan(ind)
  7904003-7904002         2.45   -nan(ind)  -nan(ind)  -nan(ind)  -nan(ind)  -nan(ind)  -nan(ind)  -nan(ind)  -nan(ind)  -nan(ind)
  7904004-7904001         3.98   -nan(ind)  -nan(ind)  -nan(ind)  -nan(ind)  -nan(ind)  -nan(ind)  -nan(ind)  -nan(ind)  -nan(ind)
  7905003-7904003         2.35   -nan(ind)  -nan(ind)  -nan(ind)  -nan(ind)  -nan(ind)  -nan(ind)  -nan(ind)  -nan(ind)  -nan(ind)
  7906003-7907005         2.05   -nan(ind)  -nan(ind)  -nan(ind)  -nan(ind)  -nan(ind)  -nan(ind)  -nan(ind)  -nan(ind)  -nan(ind)
  7906004-7906003         7.95   -nan(ind)  -nan(ind)  -nan(ind)  -nan(ind)  -nan(ind)  -nan(ind)  -nan(ind)  -nan(ind)  -nan(ind)
  7907001-7901011         2.32   -nan(ind)  -nan(ind)  -nan(ind)  -nan(ind)  -nan(ind)  -nan(ind)  -nan(ind)  -nan(ind)  -nan(ind)
  7907002-7907001         1.47   -nan(ind)  -nan(ind)  -nan(ind)  -nan(ind)  -nan(ind)  -nan(ind)  -nan(ind)  -nan(ind)  -nan(ind)
  7907003-7907002         1.57   -nan(ind)  -nan(ind)  -nan(ind)  -nan(ind)  -nan(ind)  -nan(ind)  -nan(ind)  -nan(ind)  -nan(ind)
  7907004-7907003         2.81   -nan(ind)  -nan(ind)  -nan(ind)  -nan(ind)  -nan(ind)  -nan(ind)  -nan(ind)  -nan(ind)  -nan(ind)
  7907005-7907004         3.52   -nan(ind)  -nan(ind)  -nan(ind)  -nan(ind)  -nan(ind)  -nan(ind)  -nan(ind)  -nan(ind)  -nan(ind)
  7304027-7413024         1.43   -nan(ind)  -nan(ind)  -nan(ind)  -nan(ind)  -nan(ind)  -nan(ind)  -nan(ind)  -nan(ind)  -nan(ind)
  7404003-7513012         8.18   -nan(ind)  -nan(ind)  -nan(ind)  -nan(ind)  -nan(ind)  -nan(ind)  -nan(ind)  -nan(ind)  -nan(ind)
  7404004-7404003         2.77   -nan(ind)  -nan(ind)  -nan(ind)  -nan(ind)  -nan(ind)  -nan(ind)  -nan(ind)  -nan(ind)  -nan(ind)
  7404005-7404004         1.81   -nan(ind)  -nan(ind)  -nan(ind)  -nan(ind)  -nan(ind)  -nan(ind)  -nan(ind)  -nan(ind)  -nan(ind)
  7411026-7411027         2.02   -nan(ind)  -nan(ind)  -nan(ind)  -nan(ind)  -nan(ind)  -nan(ind)  -nan(ind)  -nan(ind)  -nan(ind)
  7411027-7411028         2.85   -nan(ind)  -nan(ind)  -nan(ind)  -nan(ind)  -nan(ind)  -nan(ind)  -nan(ind)  -nan(ind)  -nan(ind)
  7411028-7411029         3.89   -nan(ind)  -nan(ind)  -nan(ind)  -nan(ind)  -nan(ind)  -nan(ind)  -nan(ind)  -nan(ind)  -nan(ind)
  7411029-7411030         2.66   -nan(ind)  -nan(ind)  -nan(ind)  -nan(ind)  -nan(ind)  -nan(ind)  -nan(ind)  -nan(ind)  -nan(ind)
  7411030-7411031        11.17   -nan(ind)  -nan(ind)  -nan(ind)  -nan(ind)  -nan(ind)  -nan(ind)  -nan(ind)  -nan(ind)  -nan(ind)
  7413024-7413025         1.49   -nan(ind)  -nan(ind)  -nan(ind)  -nan(ind)  -nan(ind)  -nan(ind)  -nan(ind)  -nan(ind)  -nan(ind)
  7413025-7414003         2.79   -nan(ind)  -nan(ind)  -nan(ind)  -nan(ind)  -nan(ind)  -nan(ind)  -nan(ind)  -nan(ind)  -nan(ind)
  7414001-7411030         5.18   -nan(ind)  -nan(ind)  -nan(ind)  -nan(ind)  -nan(ind)  -nan(ind)  -nan(ind)  -nan(ind)  -nan(ind)
  7414003-7414001         1.64   -nan(ind)  -nan(ind)  -nan(ind)  -nan(ind)  -nan(ind)  -nan(ind)  -nan(ind)  -nan(ind)  -nan(ind)
  7513005-7513018         6.75   -nan(ind)  -nan(ind)  -nan(ind)  -nan(ind)  -nan(ind)  -nan(ind)  -nan(ind)  -nan(ind)  -nan(ind)
  7513006-7513005         5.73   -nan(ind)  -nan(ind)  -nan(ind)  -nan(ind)  -nan(ind)  -nan(ind)  -nan(ind)  -nan(ind)  -nan(ind)
  7513007-7513006         2.20   -nan(ind)  -nan(ind)  -nan(ind)  -nan(ind)  -nan(ind)  -nan(ind)  -nan(ind)  -nan(ind)  -nan(ind)
  7513008-7513007         3.16   -nan(ind)  -nan(ind)  -nan(ind)  -nan(ind)  -nan(ind)  -nan(ind)  -nan(ind)  -nan(ind)  -nan(ind)
  7513009-7513008         8.91   -nan(ind)  -nan(ind)  -nan(ind)  -nan(ind)  -nan(ind)  -nan(ind)  -nan(ind)  -nan(ind)  -nan(ind)
  7513010-7513009         1.58   -nan(ind)  -nan(ind)  -nan(ind)  -nan(ind)  -nan(ind)  -nan(ind)  -nan(ind)  -nan(ind)  -nan(ind)
  7513012-7513007         4.86   -nan(ind)  -nan(ind)  -nan(ind)  -nan(ind)  -nan(ind)  -nan(ind)  -nan(ind)  -nan(ind)  -nan(ind)
  7513018-7513017         2.68   -nan(ind)  -nan(ind)  -nan(ind)  -nan(ind)  -nan(ind)  -nan(ind)  -nan(ind)  -nan(ind)  -nan(ind)
  7513019-7513018         2.64   -nan(ind)  -nan(ind)  -nan(ind)  -nan(ind)  -nan(ind)  -nan(ind)  -nan(ind)  -nan(ind)  -nan(ind)
  7513020-7513019         3.88   -nan(ind)  -nan(ind)  -nan(ind)  -nan(ind)  -nan(ind)  -nan(ind)  -nan(ind)  -nan(ind)  -nan(ind)
  7816005-7513010         1.63   -nan(ind)  -nan(ind)  -nan(ind)  -nan(ind)  -nan(ind)  -nan(ind)  -nan(ind)  -nan(ind)  -nan(ind)
  7816011-7816012         3.72   -nan(ind)  -nan(ind)  -nan(ind)  -nan(ind)  -nan(ind)  -nan(ind)  -nan(ind)  -nan(ind)  -nan(ind)
  7816012-7513020         2.28   -nan(ind)  -nan(ind)  -nan(ind)  -nan(ind)  -nan(ind)  -nan(ind)  -nan(ind)  -nan(ind)  -nan(ind)
  7901003-7404005         1.91   -nan(ind)  -nan(ind)  -nan(ind)  -nan(ind)  -nan(ind)  -nan(ind)  -nan(ind)  -nan(ind)  -nan(ind)
  7901004-7901003         2.41   -nan(ind)  -nan(ind)  -nan(ind)  -nan(ind)  -nan(ind)  -nan(ind)  -nan(ind)  -nan(ind)  -nan(ind)
  7901005-7901004         7.24   -nan(ind)  -nan(ind)  -nan(ind)  -nan(ind)  -nan(ind)  -nan(ind)  -nan(ind)  -nan(ind)  -nan(ind)
  7411007-7411026         9.35   -nan(ind)  -nan(ind)  -nan(ind)  -nan(ind)  -nan(ind)  -nan(ind)  -nan(ind)  -nan(ind)  -nan(ind)
  7413003-7414002         3.24   -nan(ind)  -nan(ind)  -nan(ind)  -nan(ind)  -nan(ind)  -nan(ind)  -nan(ind)  -nan(ind)  -nan(ind)
  7413002-7413003         7.34   -nan(ind)  -nan(ind)  -nan(ind)  -nan(ind)  -nan(ind)  -nan(ind)  -nan(ind)  -nan(ind)  -nan(ind)
  7413004-7413002         4.53   -nan(ind)  -nan(ind)  -nan(ind)  -nan(ind)  -nan(ind)  -nan(ind)  -nan(ind)  -nan(ind)  -nan(ind)
  7414002-7414003        56.45   -nan(ind)  -nan(ind)  -nan(ind)  -nan(ind)  -nan(ind)  -nan(ind)  -nan(ind)  -nan(ind)  -nan(ind)
  7411021-7513023         1.00   -nan(ind)  -nan(ind)  -nan(ind)  -nan(ind)  -nan(ind)  -nan(ind)  -nan(ind)  -nan(ind)  -nan(ind)
  7411005-7411007         1.27   -nan(ind)  -nan(ind)  -nan(ind)  -nan(ind)  -nan(ind)  -nan(ind)  -nan(ind)  -nan(ind)  -nan(ind)
  
  
  *************************
  Conduit Surcharge Summary
  *************************
  
  No conduits were surcharged.
  
  
  ***************
  Pumping Summary
  ***************
  
  ---------------------------------------------------------------------------------------------------------
                                                  Min       Avg       Max     Total     Power    % Time Off
                        Percent   Number of      Flow      Flow      Flow    Volume     Usage    Pump Curve
  Pump                 Utilized   Start-Ups       CFS       CFS       CFS  10^6 gal     Kw-hr    Low   High
  ---------------------------------------------------------------------------------------------------------
  PUMP@7411031-7411021 -nan(ind)           0      0.00      0.00      0.00     0.000      0.00    0.0    0.0
  

  Analysis begun on:  Sat Nov 30 08:10:23 2019
  Analysis ended on:  Sat Nov 30 08:10:23 2019
  Total elapsed time: < 1 sec