
  EPA STORM WATER MANAGEMENT MODEL - VERSION 5.1 (Build 5.1.013)
  --------------------------------------------------------------

            Metropolitan Sewer District of Greater Cincinnati - Capacity Assessment Project 
            RUNOFF Input for Indian Creek WWTP Model  10-year design storm  rainfall AF=1.00 
            India Creek WTP Service Area   Resize 
  
  
  **********************           Volume        Volume
  Rainfall Dependent I/I        acre-feet      10^6 gal
  **********************        ---------     ---------
  Sewershed Rainfall ......       427.881       139.431
  RDII Produced ...........         5.691         1.855
  RDII Ratio ..............         0.013
  
  
  *********************************************************
  NOTE: The summary statistics displayed in this report are
  based on results found at every computational time step,  
  not just on results from each reporting time step.
  *********************************************************
  
  ****************
  Analysis Options
  ****************
  Flow Units ............... CFS
  Process Models:
    Rainfall/Runoff ........ YES
    RDII ................... YES
    Snowmelt ............... NO
    Groundwater ............ NO
    Flow Routing ........... YES
    Ponding Allowed ........ NO
    Water Quality .......... NO
  Flow Routing Method ...... DYNWAVE
  Surcharge Method ......... EXTRAN
  Starting Date ............ 07/01/2003 00:00:00
  Ending Date .............. 07/02/2003 00:00:00
  Antecedent Dry Days ...... 0.0
  Report Time Step ......... 00:01:00
  Routing Time Step ........ 60.00 sec
  Variable Time Step ....... YES
  Maximum Trials ........... 8
  Number of Threads ........ 1
  Head Tolerance ........... 0.005000 ft
  
  
  **************************        Volume        Volume
  Flow Routing Continuity        acre-feet      10^6 gal
  **************************     ---------     ---------
  Dry Weather Inflow .......         2.135         0.696
  Wet Weather Inflow .......         0.000         0.000
  Groundwater Inflow .......         0.000         0.000
  RDII Inflow ..............         5.674         1.849
  External Inflow ..........         0.000         0.000
  External Outflow .........         4.673         1.523
  Flooding Loss ............         2.072         0.675
  Evaporation Loss .........         0.000         0.000
  Exfiltration Loss ........         0.000         0.000
  Initial Stored Volume ....         0.000         0.000
  Final Stored Volume ......         0.426         0.139
  Continuity Error (%) .....         8.167
  
  
  *************************
  Highest Continuity Errors
  *************************
  Node 7306009 (3.73%)
  Node 7311002 (3.51%)
  Node 7311001 (3.21%)
  Node 7411028 (2.98%)
  Node 7411030 (2.88%)
  
  
  ***************************
  Time-Step Critical Elements
  ***************************
  Link 7305004-7305001 (5.05%)
  Link 7305010-7305024 (3.36%)
  Link 7411005-7411007 (3.04%)
  Link 7312012-7312013 (2.39%)
  Link 7413004-7413002 (1.94%)
  
  
  ********************************
  Highest Flow Instability Indexes
  ********************************
  Link 7411030-7411031 (32)
  Link 7411026-7411027 (32)
  Link 7411027-7411028 (30)
  Link 7411007-7411026 (27)
  Link 7411028-7411029 (25)
  
  
  *************************
  Routing Time Step Summary
  *************************
  Minimum Time Step           :     9.41 sec
  Average Time Step           :    55.89 sec
  Maximum Time Step           :    60.00 sec
  Percent in Steady State     :    -0.00
  Average Iterations per Step :     3.81
  Percent Not Converging      :    19.40
  
  
  ******************
  Node Depth Summary
  ******************
  
  ---------------------------------------------------------------------------------
                                 Average  Maximum  Maximum  Time of Max    Reported
                                   Depth    Depth      HGL   Occurrence   Max Depth
  Node                 Type         Feet     Feet     Feet  days hr:min        Feet
  ---------------------------------------------------------------------------------
  10703001             JUNCTION     0.10     0.20   694.55     0  13:27        0.20
  10703002             JUNCTION     0.10     0.21   699.52     0  13:25        0.21
  10703003             JUNCTION     0.11     0.24   703.32     0  13:23        0.24
  10706001             JUNCTION     0.09     0.19   714.40     0  13:20        0.19
  10706002             JUNCTION     0.10     0.21   720.50     0  13:18        0.21
  10706003             JUNCTION     0.09     0.19   728.45     0  13:16        0.19
  10706004             JUNCTION     0.07     0.16   741.92     0  13:14        0.16
  10711001             JUNCTION     0.03     0.08   804.01     0  13:11        0.08
  10711002             JUNCTION     0.05     0.11   814.22     0  13:08        0.11
  10711003             JUNCTION     0.06     0.12   819.07     0  13:06        0.12
  10711004             JUNCTION     0.05     0.12   824.92     0  13:04        0.12
  10711005             JUNCTION     0.08     0.18   825.47     0  13:01        0.18
  10711006             JUNCTION     0.07     0.14   826.16     0  12:55        0.14
  10712005             JUNCTION     0.09     0.19   759.02     0  13:12        0.19
  10712006             JUNCTION     0.08     0.18   775.94     0  13:10        0.18
  10712007             JUNCTION     0.06     0.12   790.12     0  13:06        0.12
  10712008             JUNCTION     0.06     0.12   824.12     0  13:01        0.12
  10713001             JUNCTION     0.06     0.14   841.34     0  12:58        0.14
  10713002             JUNCTION     0.08     0.18   843.28     0  12:55        0.18
  10713003             JUNCTION     0.11     0.25   843.95     0  12:49        0.25
  10807001             JUNCTION     0.11     0.20   622.36     0  13:21        0.20
  10807003             JUNCTION     0.11     0.20   634.34     0  13:19        0.20
  10807004             JUNCTION     0.10     0.18   644.69     0  13:16        0.18
  10808001             JUNCTION     0.14     0.25   559.86     0  13:24        0.25
  10810001             JUNCTION     0.24     0.43   646.11     0  13:16        0.43
  10810002             JUNCTION     0.04     0.09   677.52     0  13:00        0.09
  10810003             JUNCTION     0.20     0.37   646.77     0  13:21        0.37
  10810004             JUNCTION     0.22     0.41   647.79     0  13:16        0.41
  10811001             JUNCTION     0.20     0.37   648.62     0  13:12        0.37
  10811003             JUNCTION     0.14     0.25   655.04     0  13:10        0.25
  10811004             JUNCTION     0.11     0.20   666.36     0  13:27        0.20
  10814001             JUNCTION     0.13     0.25   668.93     0  13:25        0.25
  10814002             JUNCTION     0.10     0.19   681.95     0  13:19        0.19
  10814003             JUNCTION     0.14     0.27   683.66     0  13:16        0.27
  10814004             JUNCTION     0.12     0.23   686.08     0  13:15        0.23
  10814007             JUNCTION     0.10     0.19   679.50     0  13:21        0.19
  7304008              JUNCTION     0.19     1.38   482.64     0  14:41        1.38
  7304010              JUNCTION     0.45     2.77   482.65     0  14:44        2.76
  7304026              JUNCTION     4.32    10.18   480.52     0  14:49       10.18
  7304027              JUNCTION     4.77    10.88   480.05     0  15:05       10.87
  7304028              JUNCTION     0.66     8.59   497.42     0  13:40        8.58
  7304029              JUNCTION     0.32     6.03   497.47     0  13:40        6.01
  7305001              JUNCTION     1.20     4.77   482.61     0  14:43        4.77
  7305002              JUNCTION     1.86     6.25   482.61     0  14:47        6.25
  7305003              JUNCTION     2.37     7.07   482.60     0  14:49        7.05
  7305004              JUNCTION     1.08     4.45   482.63     0  14:51        4.44
  7305007              JUNCTION     0.93     4.18   482.64     0  14:42        4.18
  7305008              JUNCTION     0.06     0.12   483.78     0  13:15        0.12
  7305010              JUNCTION     1.40     8.03   490.00     0  14:17        8.03
  7305015              JUNCTION     1.34     8.67   492.33     0  14:13        8.67
  7305019              JUNCTION     1.14     8.32   494.16     0  14:05        8.31
  7305022              JUNCTION     0.44     3.96   496.66     0  14:04        3.95
  7305023              JUNCTION     0.12     0.25   499.59     0  13:27        0.25
  7305024              JUNCTION     1.07     5.63   485.66     0  14:41        5.63
  7305025              JUNCTION     0.99     7.82   495.13     0  14:08        7.82
  7306005              JUNCTION     2.64     7.45   482.39     0  14:50        7.45
  7306006              JUNCTION     2.88     7.85   482.03     0  14:42        7.85
  7306007              JUNCTION     3.55     8.99   481.52     0  14:48        8.99
  7306008              JUNCTION     3.86     9.44   481.04     0  14:45        9.44
  7306009              JUNCTION     2.22     6.89   482.41     0  14:48        6.88
  7311001              JUNCTION     1.96     6.31   482.39     0  14:49        6.30
  7311002              JUNCTION     1.39     5.00   482.35     0  14:38        5.00
  7311003              JUNCTION     1.24     4.68   482.37     0  14:39        4.68
  7312003              JUNCTION     0.72     3.61   482.73     0  14:47        3.60
  7312005              JUNCTION     0.18     1.00   482.72     0  14:51        1.00
  7312006              JUNCTION     0.12     0.23   483.76     0  13:14        0.23
  7312012              JUNCTION     1.16     4.72   482.70     0  14:50        4.70
  7312013              JUNCTION     1.38     5.14   482.67     0  14:55        5.13
  7312014              JUNCTION     1.68     5.80   482.65     0  14:54        5.78
  7404003              JUNCTION     0.06     0.12   499.35     0  13:20        0.12
  7404004              JUNCTION     0.09     0.17   501.01     0  13:16        0.17
  7404005              JUNCTION     0.07     0.13   503.13     0  13:17        0.13
  7411005              JUNCTION     2.57    10.00   489.31     0  13:01       10.00
  7411007              JUNCTION     3.00     6.86   479.18     0  13:41        6.85
  7411021              JUNCTION     3.03     5.00   490.00     0  11:45        5.00
  7411026              JUNCTION     4.52     9.76   478.57     0  13:40        9.75
  7411027              JUNCTION     4.99    10.75   478.51     0  13:40       10.74
  7411028              JUNCTION     5.38    11.53   478.45     0  13:40       11.51
  7411029              JUNCTION     5.73    12.00   478.37     0  13:39       12.00
  7411030              JUNCTION     6.69    14.17   478.45     0  14:23       14.17
  7411031              JUNCTION    11.93    23.45   478.45     0  15:25       23.45
  7413002              JUNCTION     1.23     8.02   485.71     0  13:41        8.01
  7413003              JUNCTION     3.56    11.19   483.40     0  13:41       11.18
  7413004              JUNCTION     0.96     9.17   488.80     0  13:40        9.16
  7413009              JUNCTION     0.64     8.34   493.00     0  13:40        8.30
  7413010              JUNCTION     0.70     8.61   493.95     0  13:40        8.59
  7413011              JUNCTION     0.82     9.72   496.45     0  13:41        9.72
  7413012              JUNCTION     0.69     9.09   496.91     0  13:41        9.09
  7413024              JUNCTION     5.09    11.24   479.48     0  15:10       11.24
  7413025              JUNCTION     5.37    11.62   478.94     0  14:43       11.61
  7414001              JUNCTION     6.13    12.86   478.51     0  13:47       12.86
  7414002              JUNCTION     5.12    11.00   478.61     0  13:40       11.00
  7414003              JUNCTION     5.79    12.11   478.64     0  14:51       12.11
  7513005              JUNCTION     0.09     0.16   485.44     0  13:29        0.16
  7513006              JUNCTION     0.17     0.32   485.86     0  13:25        0.32
  7513007              JUNCTION     0.16     0.30   486.70     0  13:23        0.30
  7513008              JUNCTION     0.11     0.20   487.13     0  13:19        0.20
  7513009              JUNCTION     0.09     0.16   487.52     0  13:14        0.16
  7513010              JUNCTION     0.10     0.19   488.42     0  13:10        0.19
  7513012              JUNCTION     0.12     0.23   487.27     0  13:20        0.23
  7513018              JUNCTION     0.28     0.47   462.17     0  13:40        0.47
  7513019              JUNCTION     0.26     0.42   463.18     0  13:38        0.42
  7513020              JUNCTION     0.25     0.40   463.94     0  13:35        0.40
  7811001              JUNCTION     0.04     0.09   502.57     0  13:24        0.09
  7811002              JUNCTION     0.04     0.10   504.09     0  13:18        0.10
  7811003              JUNCTION     0.04     0.09   504.91     0  13:14        0.09
  7811004              JUNCTION     0.04     0.10   505.62     0  13:07        0.10
  7811005              JUNCTION     0.04     0.09   506.00     0  13:05        0.09
  7811006              JUNCTION     0.05     0.10   507.30     0  12:53        0.10
  7815001              JUNCTION     0.08     0.18   486.05     0  13:06        0.18
  7815002              JUNCTION     0.08     0.18   493.01     0  13:05        0.18
  7815003              JUNCTION     0.08     0.17   498.74     0  13:05        0.17
  7815009              JUNCTION     0.05     0.12   498.75     0  12:59        0.12
  7815010              JUNCTION     0.04     0.08   499.09     0  13:44        0.08
  7815011              JUNCTION     0.04     0.10   499.93     0  13:35        0.10
  7815012              JUNCTION     0.04     0.09   500.92     0  13:28        0.09
  7816005              JUNCTION     0.08     0.15   489.12     0  13:05        0.15
  7816011              JUNCTION     0.25     0.39   466.39     0  13:27        0.39
  7816012              JUNCTION     0.23     0.37   465.54     0  14:38        0.37
  7816013              JUNCTION     0.10     0.21   478.28     0  13:08        0.21
  7816014              JUNCTION     0.12     0.26   474.78     0  13:09        0.26
  7816015              JUNCTION     0.08     0.16   473.73     0  13:12        0.16
  7816016              JUNCTION     0.12     0.27   468.65     0  13:15        0.27
  7816017              JUNCTION     0.23     0.37   468.18     0  14:32        0.37
  7901003              JUNCTION     0.06     0.11   504.91     0  13:15        0.11
  7901004              JUNCTION     0.05     0.09   507.03     0  13:11        0.09
  7901005              JUNCTION     0.02     0.03   511.28     0  13:07        0.03
  7901008              JUNCTION     0.24     0.40   469.08     0  14:31        0.40
  7901009              JUNCTION     0.22     0.36   470.39     0  14:26        0.36
  7901010              JUNCTION     0.24     0.39   471.51     0  14:21        0.39
  7901011              JUNCTION     0.21     0.35   473.82     0  14:15        0.35
  7901012              JUNCTION     0.22     0.35   472.72     0  14:19        0.35
  7903003              JUNCTION     0.16     0.26   493.87     0  13:45        0.26
  7903009              JUNCTION     0.12     0.20   502.60     0  13:42        0.20
  7903010              JUNCTION     0.18     0.31   505.66     0  13:39        0.31
  7903011              JUNCTION     0.13     0.22   518.16     0  13:36        0.22
  7904001              JUNCTION     0.17     0.30   522.15     0  13:33        0.30
  7904002              JUNCTION     0.13     0.23   527.37     0  13:33        0.23
  7904003              JUNCTION     0.12     0.22   540.81     0  13:30        0.22
  7904004              JUNCTION     0.06     0.14   525.09     0  13:00        0.14
  7905003              JUNCTION     0.13     0.23   552.34     0  13:26        0.23
  7906003              JUNCTION     0.24     0.41   481.25     0  13:53        0.41
  7906004              JUNCTION     0.13     0.21   486.32     0  13:47        0.21
  7907001              JUNCTION     0.20     0.34   475.51     0  14:12        0.34
  7907002              JUNCTION     0.22     0.37   477.56     0  14:08        0.37
  7907003              JUNCTION     0.23     0.38   479.19     0  14:04        0.38
  7907004              JUNCTION     0.22     0.36   480.25     0  14:01        0.36
  7907005              JUNCTION     0.32     0.52   480.58     0  13:57        0.52
  8006001              JUNCTION     0.24     0.51   579.13     0  13:15        0.51
  8006002              JUNCTION     0.30     0.65   581.57     0  13:13        0.65
  8007001              JUNCTION     0.28     0.59   529.32     0  13:21        0.59
  8007002              JUNCTION     0.22     0.45   540.72     0  13:20        0.45
  8007003              JUNCTION     0.23     0.49   555.97     0  13:19        0.49
  8007004              JUNCTION     0.35     0.80   558.23     0  13:17        0.80
  8007005              JUNCTION     0.25     0.53   569.56     0  13:16        0.53
  8008002              JUNCTION     0.52     3.95   497.15     0  14:05        3.95
  8008003              JUNCTION     0.41     3.35   497.89     0  14:03        3.35
  8008004              JUNCTION     0.29     0.70   499.10     0  14:01        0.69
  8008005              JUNCTION     0.29     0.63   501.81     0  13:30        0.63
  8008006              JUNCTION     0.33     0.73   502.40     0  13:27        0.73
  8008007              JUNCTION     0.30     0.66   505.03     0  13:25        0.66
  8008008              JUNCTION     0.25     0.54   514.08     0  13:24        0.54
  8008009              JUNCTION     0.22     0.46   525.26     0  13:22        0.46
  8009001              JUNCTION     0.08     0.16   586.01     0  13:24        0.16
  8009002              JUNCTION     0.09     0.18   604.53     0  13:22        0.18
  8009003              JUNCTION     0.15     0.29   608.75     0  13:21        0.29
  8009008              JUNCTION     0.09     0.19   617.01     0  13:20        0.19
  8009009              JUNCTION     0.11     0.23   618.71     0  13:25        0.23
  8009012              JUNCTION     0.09     0.18   544.58     0  13:25        0.18
  8016005              JUNCTION     0.06     0.12   637.38     0  13:27        0.12
  8016006              JUNCTION     0.11     0.22   638.65     0  13:23        0.22
  8016007              JUNCTION     0.13     0.25   639.30     0  13:19        0.25
  8016011              JUNCTION     0.10     0.20   640.87     0  13:15        0.20
  8016014              JUNCTION     0.09     0.14   641.55     0  13:15        0.14
  7513023              OUTFALL      0.93     1.17   480.57     0  11:19        1.17
  7513017              OUTFALL      0.28     0.47   461.00     0  13:41        0.47
  
  
  *******************
  Node Inflow Summary
  *******************
  
  -------------------------------------------------------------------------------------------------
                                  Maximum  Maximum                  Lateral       Total        Flow
                                  Lateral    Total  Time of Max      Inflow      Inflow     Balance
                                   Inflow   Inflow   Occurrence      Volume      Volume       Error
  Node                 Type           CFS      CFS  days hr:min    10^6 gal    10^6 gal     Percent
  -------------------------------------------------------------------------------------------------
  10703001             JUNCTION      0.00     0.52     0  13:25           0      0.0792       0.388
  10703002             JUNCTION      0.13     0.53     0  13:15      0.0176      0.0795       0.308
  10703003             JUNCTION      0.00     0.48     0  13:20           0      0.0622       0.441
  10706001             JUNCTION      0.00     0.48     0  13:19           0      0.0623       0.266
  10706002             JUNCTION      0.00     0.48     0  13:16           0      0.0625       0.301
  10706003             JUNCTION      0.00     0.49     0  13:14           0      0.0627       0.314
  10706004             JUNCTION      0.00     0.49     0  13:12           0      0.0629       0.251
  10711001             JUNCTION      0.00     0.16     0  13:09           0      0.0204       0.374
  10711002             JUNCTION      0.00     0.16     0  13:07           0      0.0204       0.360
  10711003             JUNCTION      0.00     0.16     0  13:04           0      0.0205       0.401
  10711004             JUNCTION      0.00     0.16     0  13:01           0      0.0206       0.321
  10711005             JUNCTION      0.00     0.16     0  12:55           0      0.0207       0.559
  10711006             JUNCTION      0.16     0.16     0  12:50      0.0207      0.0207       0.185
  10712005             JUNCTION      0.00     0.49     0  13:10           0      0.0631       0.278
  10712006             JUNCTION      0.00     0.49     0  13:08           0      0.0633       0.318
  10712007             JUNCTION      0.00     0.33     0  13:01           0      0.0432       0.456
  10712008             JUNCTION      0.00     0.33     0  12:59           0      0.0433       0.264
  10713001             JUNCTION      0.01     0.33     0  12:56     0.00121      0.0434       0.248
  10713002             JUNCTION      0.00     0.32     0  12:54           0      0.0423       0.302
  10713003             JUNCTION      0.32     0.32     0  12:50      0.0424      0.0424       0.183
  10807001             JUNCTION      0.02     0.78     0  13:19     0.00326       0.159       0.310
  10807003             JUNCTION      0.00     0.78     0  13:17           0       0.157       0.299
  10807004             JUNCTION      0.00     0.78     0  13:16           0       0.157       0.213
  10808001             JUNCTION      0.00     0.78     0  13:21           0       0.159       0.375
  10810001             JUNCTION      0.00     0.78     0  13:11           0       0.158       0.424
  10810002             JUNCTION      0.19     0.19     0  12:50      0.0243      0.0243       0.339
  10810003             JUNCTION      0.00     0.68     0  13:18           0       0.134       0.453
  10810004             JUNCTION      0.00     0.68     0  13:12           0       0.135       0.457
  10811001             JUNCTION      0.00     0.69     0  13:11           0       0.135       0.490
  10811003             JUNCTION      0.20     0.71     0  13:05      0.0258       0.136       0.328
  10811004             JUNCTION      0.08     0.60     0  13:25      0.0103        0.11       0.305
  10814001             JUNCTION      0.00     0.58     0  13:21           0         0.1       0.424
  10814002             JUNCTION      0.00     0.58     0  13:17           0      0.0974       0.295
  10814003             JUNCTION      0.00     0.58     0  13:15           0      0.0978       0.417
  10814004             JUNCTION      0.15     0.59     0  13:10      0.0192      0.0981       0.351
  10814007             JUNCTION      0.03     0.58     0  13:19     0.00364       0.101       0.318
  7304008              JUNCTION      0.08     0.24     0  14:10      0.0147      0.0156      -0.820
  7304010              JUNCTION      0.03     0.76     0  14:01     0.00558      0.0245       0.097
  7304026              JUNCTION      0.00     4.12     0  13:27           0       0.907       0.956
  7304027              JUNCTION      0.08     3.82     0  13:24      0.0107        0.91       0.997
  7304028              JUNCTION      0.00     1.76     0  13:03           0       0.271       0.020
  7304029              JUNCTION      1.80     1.80     0  13:06       0.271       0.271       0.091
  7305001              JUNCTION      0.01     1.09     0  13:53      0.0018      0.0772       2.415
  7305002              JUNCTION      0.02     1.88     0  13:39     0.00262      0.0821       2.900
  7305003              JUNCTION      0.06     4.74     0  13:36       0.011       0.917       0.719
  7305004              JUNCTION      0.05     1.12     0  13:53     0.00799      0.0729       1.492
  7305007              JUNCTION      0.05     1.31     0  13:55     0.00885      0.0612       1.196
  7305008              JUNCTION      0.13     0.13     0  13:11      0.0227      0.0227       0.109
  7305010              JUNCTION      0.01     3.70     0  13:38     0.00175       0.721       0.154
  7305015              JUNCTION      0.09     3.70     0  13:38      0.0151        0.72       0.084
  7305019              JUNCTION      0.11     3.63     0  13:38      0.0199       0.705       0.062
  7305022              JUNCTION      0.46     3.90     0  13:35      0.0797       0.684       0.045
  7305023              JUNCTION      0.00     0.67     0  13:25           0       0.116       0.354
  7305024              JUNCTION      0.02     3.72     0  13:38     0.00318       0.723       0.325
  7305025              JUNCTION      0.01     3.54     0  13:38      0.0021       0.686       0.102
  7306005              JUNCTION      0.00     4.79     0  13:33           0        0.95       1.008
  7306006              JUNCTION      0.00     4.86     0  13:31           0       0.929       0.848
  7306007              JUNCTION      0.00     4.57     0  13:30           0       0.922       0.859
  7306008              JUNCTION      0.00     4.39     0  13:29           0       0.915       0.893
  7306009              JUNCTION      0.00     1.73     0  13:39           0      0.0675       3.877
  7311001              JUNCTION      0.00     1.80     0  13:39           0      0.0643       3.314
  7311002              JUNCTION      0.00     1.15     0  13:47           0      0.0623       3.632
  7311003              JUNCTION      0.09     1.07     0  13:47      0.0556      0.0568       1.460
  7312003              JUNCTION      0.13     0.86     0  13:54      0.0218      0.0969       0.142
  7312005              JUNCTION      0.01     0.42     0  13:15     0.00146      0.0742       0.281
  7312006              JUNCTION      0.42     0.42     0  13:11      0.0723      0.0723       0.122
  7312012              JUNCTION      0.04     1.41     0  13:47      0.0077       0.106       1.573
  7312013              JUNCTION      0.05     1.52     0  13:43     0.00858       0.115       2.028
  7312014              JUNCTION      0.03     1.92     0  13:41     0.00532       0.121       2.078
  7404003              JUNCTION      0.06     0.21     0  13:15      0.0134      0.0464       0.436
  7404004              JUNCTION      0.06     0.15     0  13:15      0.0133      0.0332       0.464
  7404005              JUNCTION      0.03     0.09     0  13:15     0.00605        0.02       0.535
  7411005              JUNCTION      2.03     2.03     0  13:01       0.464       0.464       0.132
  7411007              JUNCTION      0.00     2.02     0  13:05           0       0.462       0.664
  7411021              JUNCTION      0.00     2.90     0  12:20           0        1.32       1.134
  7411026              JUNCTION      0.12     3.37     0  13:25      0.0253       0.486       1.482
  7411027              JUNCTION      0.06     3.89     0  13:22      0.0137       0.497       2.714
  7411028              JUNCTION      0.00     2.88     0  13:13           0       0.488       3.070
  7411029              JUNCTION      0.00     2.64     0  14:16           0        0.59       2.129
  7411030              JUNCTION      0.00     6.43     0  12:59           0        1.51       2.962
  7411031              JUNCTION      0.00     3.15     0  13:27           0        1.35       2.593
  7413002              JUNCTION      0.00     3.60     0  13:22           0       0.588       0.547
  7413003              JUNCTION      0.00     3.49     0  13:21           0       0.585       0.547
  7413004              JUNCTION      0.00     3.59     0  13:22           0       0.589       0.103
  7413009              JUNCTION      1.87     3.59     0  13:22       0.279       0.589       0.058
  7413010              JUNCTION      0.00     1.85     0  13:23           0       0.311       0.154
  7413011              JUNCTION      0.24     1.87     0  13:23      0.0355       0.311       0.142
  7413012              JUNCTION      0.03     1.67     0  13:23     0.00497       0.276      -0.057
  7413024              JUNCTION      0.00     3.46     0  13:21           0       0.902       1.003
  7413025              JUNCTION      0.00     3.45     0  14:43           0       0.893       1.041
  7414001              JUNCTION      0.13     5.39     0  13:02      0.0271        1.34       1.484
  7414002              JUNCTION      0.00     3.36     0  13:14           0       0.582       0.711
  7414003              JUNCTION      0.00     5.37     0  13:11           0        1.34       1.442
  7513005              JUNCTION      0.00     0.39     0  13:26           0      0.0839       0.382
  7513006              JUNCTION      0.00     0.39     0  13:24           0      0.0843       0.428
  7513007              JUNCTION      0.02     0.39     0  13:20     0.00326      0.0847       0.530
  7513008              JUNCTION      0.01     0.16     0  13:14     0.00151      0.0336       0.574
  7513009              JUNCTION      0.03     0.15     0  13:10      0.0075      0.0323       0.440
  7513010              JUNCTION      0.04     0.12     0  13:05     0.00845      0.0249       0.622
  7513012              JUNCTION      0.01     0.22     0  13:20     0.00188      0.0481       0.163
  7513018              JUNCTION      0.00     1.54     0  13:38           0        0.39       0.382
  7513019              JUNCTION      0.06     1.17     0  13:35      0.0132       0.308       0.401
  7513020              JUNCTION      0.06     1.12     0  13:31      0.0129       0.296       0.406
  7811001              JUNCTION      0.00     0.03     0  13:20           0      0.0046       0.791
  7811002              JUNCTION      0.00     0.04     0  13:14           0     0.00463       0.816
  7811003              JUNCTION      0.00     0.04     0  13:09           0     0.00467       0.766
  7811004              JUNCTION      0.00     0.04     0  13:06           0     0.00471       0.804
  7811005              JUNCTION      0.00     0.04     0  12:57           0     0.00474       0.735
  7811006              JUNCTION      0.04     0.04     0  12:50     0.00476     0.00476       0.345
  7815001              JUNCTION      0.00     0.32     0  13:06           0      0.0448       0.316
  7815002              JUNCTION      0.00     0.32     0  13:05           0      0.0449       0.323
  7815003              JUNCTION      0.31     0.32     0  13:00      0.0406       0.045       0.216
  7815009              JUNCTION      0.00     0.03     0  13:44           0     0.00447       1.145
  7815010              JUNCTION      0.00     0.03     0  13:38           0     0.00449       0.844
  7815011              JUNCTION      0.00     0.03     0  13:29           0     0.00452       0.853
  7815012              JUNCTION      0.00     0.03     0  13:24           0     0.00456       0.827
  7816005              JUNCTION      0.08     0.08     0  13:01      0.0165      0.0165       0.339
  7816011              JUNCTION      0.05     1.06     0  13:25      0.0112       0.283       0.407
  7816012              JUNCTION      0.01     1.06     0  13:28      0.0024       0.284       0.388
  7816013              JUNCTION      0.00     0.32     0  13:06           0      0.0446       0.376
  7816014              JUNCTION      0.00     0.32     0  13:08           0      0.0445       0.436
  7816015              JUNCTION      0.00     0.32     0  13:10           0      0.0443       0.264
  7816016              JUNCTION      0.00     0.32     0  13:12           0      0.0441       0.725
  7816017              JUNCTION      0.00     1.02     0  14:28           0       0.273       0.353
  7901003              JUNCTION      0.02     0.06     0  13:10     0.00434      0.0141       0.614
  7901004              JUNCTION      0.04     0.05     0  13:05     0.00765     0.00979       0.704
  7901005              JUNCTION      0.01     0.01     0  13:01     0.00215     0.00215       0.458
  7901008              JUNCTION      0.00     0.92     0  14:27           0        0.23       0.478
  7901009              JUNCTION      0.00     0.92     0  14:23           0       0.231       0.421
  7901010              JUNCTION      0.00     0.92     0  14:20           0       0.232       0.456
  7901011              JUNCTION      0.00     0.89     0  14:13           0       0.215       0.447
  7901012              JUNCTION      0.15     0.93     0  14:15       0.019       0.233       0.396
  7903003              JUNCTION      0.07     0.85     0  13:43     0.00895       0.193       0.364
  7903009              JUNCTION      0.00     0.83     0  13:40           0       0.185       0.274
  7903010              JUNCTION      0.00     0.84     0  13:36           0       0.185       0.428
  7903011              JUNCTION      0.08     0.84     0  13:34      0.0103       0.186       0.276
  7904001              JUNCTION      0.00     0.82     0  13:32           0       0.176       0.181
  7904002              JUNCTION      0.00     0.78     0  13:30           0       0.157       0.446
  7904003              JUNCTION      0.00     0.78     0  13:27           0       0.158       0.284
  7904004              JUNCTION      0.15     0.15     0  12:50      0.0193      0.0193       0.418
  7905003              JUNCTION      0.00     0.78     0  13:24           0       0.158       0.283
  7906003              JUNCTION      0.09     0.87     0  13:47      0.0114       0.203       0.589
  7906004              JUNCTION      0.00     0.85     0  13:46           0       0.192       0.307
  7907001              JUNCTION      0.00     0.89     0  14:09           0       0.216       0.406
  7907002              JUNCTION      0.00     0.90     0  14:05           0       0.217       0.438
  7907003              JUNCTION      0.00     0.90     0  14:01           0       0.218       0.441
  7907004              JUNCTION      0.14     0.90     0  13:58      0.0178       0.218       0.388
  7907005              JUNCTION      0.00     0.87     0  13:53           0       0.202       0.709
  8006001              JUNCTION      0.00     2.88     0  13:14           0         0.5       0.137
  8006002              JUNCTION      2.88     2.88     0  13:11         0.5         0.5       0.073
  8007001              JUNCTION      0.00     2.87     0  13:20           0       0.496       0.177
  8007002              JUNCTION      0.00     2.87     0  13:19           0       0.496       0.071
  8007003              JUNCTION      0.00     2.87     0  13:18           0       0.497       0.202
  8007004              JUNCTION      0.00     2.88     0  13:16           0       0.498       0.201
  8007005              JUNCTION      0.00     2.88     0  13:16           0       0.499       0.152
  8008002              JUNCTION      0.00     2.83     0  13:35           0       0.489       0.158
  8008003              JUNCTION      0.00     2.86     0  13:31           0        0.49       0.145
  8008004              JUNCTION      0.00     2.86     0  13:30           0       0.491       0.166
  8008005              JUNCTION      0.00     2.86     0  13:28           0       0.492       0.148
  8008006              JUNCTION      0.00     2.86     0  13:26           0       0.493       0.181
  8008007              JUNCTION      0.00     2.86     0  13:24           0       0.493       0.175
  8008008              JUNCTION      0.00     2.87     0  13:23           0       0.494       0.163
  8008009              JUNCTION      0.00     2.87     0  13:22           0       0.495       0.134
  8009001              JUNCTION      0.02     0.64     0  13:22     0.00391       0.111       0.209
  8009002              JUNCTION      0.05     0.62     0  13:20     0.00937       0.108       0.180
  8009003              JUNCTION      0.09     0.57     0  13:20      0.0163      0.0985       0.328
  8009008              JUNCTION      0.21     0.48     0  13:20      0.0364      0.0824       0.203
  8009009              JUNCTION      0.08     0.28     0  13:25      0.0112      0.0461       0.191
  8009012              JUNCTION      0.03     0.67     0  13:24     0.00543       0.116       0.206
  8016005              JUNCTION      0.00     0.20     0  13:24           0       0.035       0.409
  8016006              JUNCTION      0.00     0.20     0  13:21           0      0.0352       0.432
  8016007              JUNCTION      0.00     0.20     0  13:16           0      0.0353       0.521
  8016011              JUNCTION      0.14     0.20     0  13:15      0.0203      0.0355       0.379
  8016014              JUNCTION      0.06     0.06     0  13:11      0.0152      0.0152       0.293
  7513023              OUTFALL       0.00     2.38     0  17:25           0        1.13       0.000
  7513017              OUTFALL       0.00     1.54     0  13:41           0       0.389       0.000
  
  
  **********************
  Node Surcharge Summary
  **********************
  
  Surcharging occurs when water rises above the top of the highest conduit.
  ---------------------------------------------------------------------
                                               Max. Height   Min. Depth
                                   Hours       Above Crown    Below Rim
  Node                 Type      Surcharged           Feet         Feet
  ---------------------------------------------------------------------
  7304008              JUNCTION        1.51          0.378        7.622
  7304010              JUNCTION        3.45          1.770        4.230
  7304026              JUNCTION       10.54          8.680        4.820
  7304027              JUNCTION       10.60          9.375        8.125
  7304028              JUNCTION        1.28          7.349        6.411
  7304029              JUNCTION        0.81          5.030        2.970
  7305001              JUNCTION       10.23          3.774        5.226
  7305002              JUNCTION       10.34          5.253        5.747
  7305003              JUNCTION       10.36          5.567        4.933
  7305004              JUNCTION        7.30          3.454        6.546
  7305007              JUNCTION        5.92          3.073        6.817
  7305010              JUNCTION        4.96          7.033        3.967
  7305015              JUNCTION        4.36          7.671        2.329
  7305019              JUNCTION        3.77          7.321        2.679
  7305022              JUNCTION        0.68          1.586        5.044
  7305024              JUNCTION        4.95          4.634        4.366
  7305025              JUNCTION        3.00          6.824        3.176
  7306005              JUNCTION       10.42          5.955        0.545
  7306006              JUNCTION       10.45          6.349        5.151
  7306007              JUNCTION       10.49          7.493        4.007
  7306008              JUNCTION       10.51          7.944        4.556
  7306009              JUNCTION       10.40          5.885        2.115
  7311001              JUNCTION       10.34          5.314        2.686
  7311002              JUNCTION       10.20          4.000        0.000
  7311003              JUNCTION       10.20          3.680        1.320
  7312003              JUNCTION        4.98          2.607        7.393
  7312012              JUNCTION        9.09          3.715        5.285
  7312013              JUNCTION       10.26          4.142        5.858
  7312014              JUNCTION       10.31          4.799        5.201
  7411005              JUNCTION       11.42          9.330        0.000
  7411007              JUNCTION       10.49          6.035        4.135
  7411021              JUNCTION       12.49          3.830        0.000
  7411026              JUNCTION       10.57          8.005        6.245
  7411027              JUNCTION       10.62          8.997        6.253
  7411028              JUNCTION       10.69          9.775        6.475
  7411029              JUNCTION       10.74         10.250        0.000
  7411030              JUNCTION       10.85         10.899        0.831
  7411031              JUNCTION       12.94         20.952        1.548
  7413002              JUNCTION       10.62          7.191        4.289
  7413003              JUNCTION       10.65          8.062        6.598
  7413004              JUNCTION        4.58          8.335        2.835
  7413009              JUNCTION        2.01          7.513        2.657
  7413010              JUNCTION        1.92          7.781        1.389
  7413011              JUNCTION        2.06          8.723        0.277
  7413012              JUNCTION        1.71          8.059        0.911
  7413024              JUNCTION       10.65          9.744        7.756
  7413025              JUNCTION       10.71         10.120        6.380
  7414001              JUNCTION       10.84         10.716        5.144
  7414002              JUNCTION       10.76         10.170        0.000
  7414003              JUNCTION       10.72         10.115        1.885
  8008002              JUNCTION        1.61          2.947        6.053
  8008003              JUNCTION        1.06          2.353        7.647
  
  
  *********************
  Node Flooding Summary
  *********************
  
  Flooding refers to all water that overflows a node, whether it ponds or not.
  --------------------------------------------------------------------------
                                                             Total   Maximum
                                 Maximum   Time of Max       Flood    Ponded
                        Hours       Rate    Occurrence      Volume     Depth
  Node                 Flooded       CFS   days hr:min    10^6 gal      Feet
  --------------------------------------------------------------------------
  7311002                 0.89      0.27      0  14:55       0.004     0.000
  7411005                 0.43      0.15      0  13:40       0.001     0.000
  7411021                12.26      0.52      0  12:21       0.167     0.000
  7411029                 9.16      2.63      0  13:55       0.382     0.000
  7414002                 4.70      1.78      0  14:45       0.121     0.000
  
  
  ***********************
  Outfall Loading Summary
  ***********************
  
  -----------------------------------------------------------
                         Flow       Avg       Max       Total
                         Freq      Flow      Flow      Volume
  Outfall Node           Pcnt       CFS       CFS    10^6 gal
  -----------------------------------------------------------
  7513023               97.15      1.85      2.38       1.134
  7513017               96.51      0.65      1.54       0.389
  -----------------------------------------------------------
  System                96.83      2.50      3.92       1.523
  
  
  ********************
  Link Flow Summary
  ********************
  
  -----------------------------------------------------------------------------
                                 Maximum  Time of Max   Maximum    Max/    Max/
                                  |Flow|   Occurrence   |Veloc|    Full    Full
  Link                 Type          CFS  days hr:min    ft/sec    Flow   Depth
  -----------------------------------------------------------------------------
  7305003-7306005      CONDUIT      4.75     0  13:34      3.47    0.78    1.00
  7305004-7305001      CONDUIT      1.08     0  13:53      1.45    0.90    1.00
  7305007-7305004      CONDUIT      1.08     0  13:55      1.64    0.66    1.00
  7305008-7305007      CONDUIT      0.13     0  13:15      1.17    0.03    0.55
  7305010-7305024      CONDUIT      3.70     0  13:38      4.79    1.73    1.00
  7305015-7305010      CONDUIT      3.69     0  13:38      4.70    1.34    1.00
  7305019-7305015      CONDUIT      3.62     0  13:38      4.61    1.04    1.00
  7305022-7305025      CONDUIT      3.53     0  13:38      6.50    0.59    1.00
  7305023-7305022      CONDUIT      0.67     0  13:28      5.53    0.30    0.68
  7305024-7305003      CONDUIT      3.69     0  13:36      5.11    1.06    1.00
  7305025-7305019      CONDUIT      3.53     0  13:38      5.11    0.90    1.00
  7306005-7306006      CONDUIT      4.86     0  13:31      3.45    0.98    1.00
  7306006-7306007      CONDUIT      4.57     0  13:30      3.40    0.75    1.00
  7306007-7306008      CONDUIT      4.39     0  13:29      3.16    0.92    1.00
  7306008-7304026      CONDUIT      4.12     0  13:27      3.28    0.79    1.00
  7312003-7312012      CONDUIT      0.55     0  13:18      2.11    0.31    1.00
  7312005-7312003      CONDUIT      0.42     0  13:16      2.00    0.11    1.00
  7312006-7312005      CONDUIT      0.42     0  13:15      3.04    0.12    0.59
  7312012-7312013      CONDUIT      0.90     0  13:47      2.26    0.35    1.00
  7312013-7312014      CONDUIT      0.96     0  13:43      2.17    0.51    1.00
  7312014-7305003      CONDUIT      1.31     0  13:41      1.77    0.65    1.00
  8006001-8007005      CONDUIT      2.88     0  13:16      7.06    0.51    0.52
  8006002-8006001      CONDUIT      2.88     0  13:14      6.13    0.73    0.58
  8007001-8008009      CONDUIT      2.87     0  13:22      6.90    0.62    0.52
  8007002-8007001      CONDUIT      2.87     0  13:20      7.00    0.41    0.52
  8007003-8007002      CONDUIT      2.87     0  13:19      7.56    0.48    0.49
  8007004-8007003      CONDUIT      2.87     0  13:18      5.40    0.93    0.64
  8007005-8007004      CONDUIT      2.88     0  13:16      5.26    0.54    0.66
  8008002-7305022      CONDUIT      2.83     0  13:35      4.39    1.21    1.00
  8008003-8008002      CONDUIT      2.83     0  13:35      4.11    0.89    1.00
  8008004-8008003      CONDUIT      2.86     0  13:31      5.04    0.71    0.85
  8008005-8008004      CONDUIT      2.86     0  13:30      5.52    0.72    0.63
  8008006-8008005      CONDUIT      2.86     0  13:28      5.04    0.93    0.68
  8008007-8008006      CONDUIT      2.86     0  13:26      4.92    0.77    0.69
  8008008-8008007      CONDUIT      2.86     0  13:24      5.85    0.56    0.60
  8008009-8008008      CONDUIT      2.87     0  13:23      7.39    0.43    0.50
  8009001-8009012      CONDUIT      0.64     0  13:24      7.12    0.05    0.17
  8009002-8009001      CONDUIT      0.62     0  13:22      7.14    0.07    0.17
  8009003-8009002      CONDUIT      0.56     0  13:22      4.02    0.16    0.23
  8009008-8009003      CONDUIT      0.48     0  13:21      3.29    0.07    0.24
  8009009-8009008      CONDUIT      0.27     0  13:25      2.37    0.11    0.21
  8009012-7305023      CONDUIT      0.67     0  13:25      6.72    0.17    0.33
  8016005-8009009      CONDUIT      0.20     0  13:27      3.97    0.03    0.12
  8016006-8016005      CONDUIT      0.20     0  13:24      2.37    0.09    0.17
  8016007-8016006      CONDUIT      0.20     0  13:21      1.45    0.13    0.23
  8016011-8016007      CONDUIT      0.20     0  13:16      1.55    0.09    0.22
  8016014-8016011      CONDUIT      0.06     0  13:15      0.73    0.04    0.17
  7304008-7304010      CONDUIT      0.19     0  14:10      1.04    0.10    1.00
  7304010-7305007      CONDUIT      0.67     0  14:01      1.25    0.39    1.00
  7304026-7304027      CONDUIT      3.74     0  13:24      3.01    0.70    1.00
  7305001-7305002      CONDUIT      1.09     0  13:53      1.91    0.51    1.00
  7305002-7305003      CONDUIT      1.53     0  13:39      2.24    0.80    1.00
  7311002-7311001      CONDUIT      1.15     0  13:47      1.63    0.58    1.00
  7311003-7311002      CONDUIT      0.99     0  13:47      1.70    0.49    1.00
  7306009-7306005      CONDUIT      1.73     0  13:39      2.20    0.75    1.00
  7311001-7306009      CONDUIT      1.71     0  13:39      2.40    0.80    1.00
  7304028-7413012      CONDUIT      1.64     0  13:23      2.75    0.87    1.00
  7304029-7304028      CONDUIT      1.76     0  13:03      6.87    0.19    1.00
  7413011-7413010      CONDUIT      1.85     0  13:23      3.43    1.61    1.00
  7413012-7413011      CONDUIT      1.65     0  13:23      2.17    0.78    1.00
  7413010-7413009      CONDUIT      1.85     0  13:22      3.43    1.44    1.00
  7413009-7413004      CONDUIT      3.59     0  13:22      6.64    1.11    1.00
  7811001-7815012      CONDUIT      0.03     0  13:24      0.95    0.02    0.09
  7811002-7811001      CONDUIT      0.03     0  13:20      0.94    0.02    0.09
  7811003-7811002      CONDUIT      0.04     0  13:14      0.97    0.02    0.09
  7811004-7811003      CONDUIT      0.04     0  13:09      0.99    0.02    0.09
  7811005-7811004      CONDUIT      0.04     0  13:06      1.01    0.02    0.09
  7811006-7811005      CONDUIT      0.04     0  12:57      1.01    0.02    0.09
  7815001-7816013      CONDUIT      0.32     0  13:06      2.98    0.07    0.19
  7815002-7815001      CONDUIT      0.32     0  13:06      3.40    0.07    0.18
  7815003-7815002      CONDUIT      0.32     0  13:05      5.82    0.06    0.17
  7815009-7815003      CONDUIT      0.03     0  13:51      0.76    0.02    0.14
  7815010-7815009      CONDUIT      0.03     0  13:44      0.92    0.01    0.09
  7815011-7815010      CONDUIT      0.03     0  13:38      0.95    0.02    0.09
  7815012-7815011      CONDUIT      0.03     0  13:29      0.90    0.02    0.10
  7816013-7816014      CONDUIT      0.32     0  13:08      2.28    0.10    0.23
  10703001-10814004    CONDUIT      0.52     0  13:27      3.33    0.04    0.14
  10703002-10703001    CONDUIT      0.52     0  13:25      3.64    0.04    0.14
  10703003-10703002    CONDUIT      0.48     0  13:24      2.89    0.05    0.15
  10706001-10703003    CONDUIT      0.48     0  13:20      3.83    0.08    0.22
  10706002-10706001    CONDUIT      0.48     0  13:19      4.19    0.10    0.20
  10706003-10706002    CONDUIT      0.48     0  13:16      4.20    0.08    0.20
  10706004-10706003    CONDUIT      0.49     0  13:14      5.21    0.05    0.18
  10711001-10712006    CONDUIT      0.16     0  13:12      2.63    0.01    0.13
  10711002-10711001    CONDUIT      0.16     0  13:09      4.31    0.02    0.09
  10711003-10711002    CONDUIT      0.16     0  13:07      3.06    0.03    0.12
  10711004-10711003    CONDUIT      0.16     0  13:04      2.92    0.03    0.12
  10711005-10711004    CONDUIT      0.16     0  13:01      2.16    0.07    0.15
  10711006-10711005    CONDUIT      0.16     0  12:55      1.95    0.04    0.16
  10712005-10706004    CONDUIT      0.49     0  13:12      5.29    0.07    0.17
  10712006-10712005    CONDUIT      0.49     0  13:10      4.79    0.07    0.19
  10712007-10712006    CONDUIT      0.33     0  13:06      6.00    0.03    0.12
  10712008-10712007    CONDUIT      0.33     0  13:01      6.14    0.03    0.12
  10713001-10712008    CONDUIT      0.33     0  12:59      5.69    0.04    0.13
  10713002-10713001    CONDUIT      0.32     0  12:56      4.01    0.07    0.16
  10713003-10713002    CONDUIT      0.32     0  12:54      2.60    0.13    0.22
  10807001-10808001    CONDUIT      0.78     0  13:21      4.66    0.04    0.15
  10807003-10807001    CONDUIT      0.77     0  13:19      5.44    0.04    0.13
  10807004-10807003    CONDUIT      0.78     0  13:17      5.84    0.03    0.13
  10808001-7905003     CONDUIT      0.78     0  13:24      4.26    0.06    0.16
  10810001-10807004    CONDUIT      0.78     0  13:16      2.99    0.16    0.20
  10810002-10810001    CONDUIT      0.19     0  13:00      5.26    0.02    0.09
  10810003-10810001    CONDUIT      0.68     0  13:21      1.81    0.13    0.27
  10810004-10810003    CONDUIT      0.68     0  13:18      1.88    0.15    0.26
  10811001-10810004    CONDUIT      0.68     0  13:12      1.88    0.13    0.26
  10811003-10811001    CONDUIT      0.69     0  13:11      2.67    0.06    0.21
  10811004-10811003    CONDUIT      0.60     0  13:27      3.70    0.04    0.15
  10814001-10811004    CONDUIT      0.58     0  13:25      3.50    0.06    0.15
  10814002-10814007    CONDUIT      0.57     0  13:19      4.44    0.03    0.13
  10814003-10814002    CONDUIT      0.58     0  13:17      3.33    0.07    0.15
  10814004-10814003    CONDUIT      0.58     0  13:15      2.96    0.05    0.17
  10814007-10814001    CONDUIT      0.58     0  13:21      3.70    0.03    0.14
  7816014-7816015      CONDUIT      0.32     0  13:10      2.66    0.13    0.21
  7816015-7816016      CONDUIT      0.32     0  13:12      2.58    0.06    0.22
  7816016-7816017      CONDUIT      0.31     0  13:16      2.42    0.34    0.39
  7816017-7816011      CONDUIT      1.02     0  14:33      2.45    0.07    0.19
  7901008-7816017      CONDUIT      0.92     0  14:31      2.19    0.08    0.19
  7901009-7901008      CONDUIT      0.92     0  14:27      2.22    0.07    0.19
  7901010-7901009      CONDUIT      0.92     0  14:23      2.26    0.08    0.19
  7901011-7901012      CONDUIT      0.89     0  14:16      2.39    0.07    0.18
  7901012-7901010      CONDUIT      0.92     0  14:20      2.31    0.07    0.18
  7903003-7906004      CONDUIT      0.85     0  13:46      4.33    0.05    0.14
  7903009-7903003      CONDUIT      0.83     0  13:43      4.42    0.03    0.13
  7903010-7903009      CONDUIT      0.83     0  13:40      3.84    0.06    0.15
  7903011-7903010      CONDUIT      0.84     0  13:36      3.66    0.03    0.15
  7904001-7903011      CONDUIT      0.82     0  13:34      3.62    0.06    0.15
  7904002-7904001      CONDUIT      0.77     0  13:33      4.63    0.05    0.15
  7904003-7904002      CONDUIT      0.78     0  13:30      4.75    0.05    0.15
  7904004-7904001      CONDUIT      0.15     0  13:00      2.25    0.04    0.14
  7905003-7904003      CONDUIT      0.78     0  13:27      4.66    0.05    0.15
  7906003-7907005      CONDUIT      0.87     0  13:53      1.58    0.09    0.23
  7906004-7906003      CONDUIT      0.85     0  13:47      2.96    0.03    0.18
  7907001-7901011      CONDUIT      0.89     0  14:13      2.45    0.06    0.17
  7907002-7907001      CONDUIT      0.89     0  14:09      2.39    0.07    0.18
  7907003-7907002      CONDUIT      0.90     0  14:05      2.23    0.08    0.19
  7907004-7907003      CONDUIT      0.90     0  14:01      2.26    0.07    0.18
  7907005-7907004      CONDUIT      0.87     0  13:58      1.69    0.14    0.22
  7304027-7413024      CONDUIT      3.46     0  13:21      2.77    0.78    1.00
  7404003-7513012      CONDUIT      0.21     0  13:20      4.15    0.03    0.12
  7404004-7404003      CONDUIT      0.15     0  13:16      2.23    0.05    0.14
  7404005-7404004      CONDUIT      0.09     0  13:17      1.27    0.03    0.15
  7411026-7411027      CONDUIT      2.14     0  13:06      2.80    0.27    1.00
  7411027-7411028      CONDUIT      2.20     0  13:11      2.87    0.27    1.00
  7411028-7411029      CONDUIT      2.18     0  13:08      1.93    0.28    1.00
  7411029-7411030      CONDUIT      2.07     0  13:04      2.46    1.68    1.00
  7411030-7411031      CONDUIT      3.15     0  13:27     13.24    0.04    1.00
  7413024-7413025      CONDUIT      3.45     0  14:43      2.77    0.77    1.00
  7413025-7414003      CONDUIT      3.46     0  14:45      2.10    0.64    1.00
  7414001-7411030      CONDUIT      5.14     0  13:22      3.57    0.51    1.00
  7414003-7414001      CONDUIT      5.26     0  13:02      3.18    0.62    1.00
  7513005-7513018      CONDUIT      0.39     0  13:30      4.75    0.06    0.16
  7513006-7513005      CONDUIT      0.39     0  13:26      2.71    0.22    0.24
  7513007-7513006      CONDUIT      0.39     0  13:24      1.87    0.20    0.31
  7513008-7513007      CONDUIT      0.15     0  13:19      1.01    0.08    0.25
  7513009-7513008      CONDUIT      0.15     0  13:14      1.56    0.06    0.18
  7513010-7513009      CONDUIT      0.11     0  13:11      1.25    0.07    0.17
  7513012-7513007      CONDUIT      0.22     0  13:21      1.70    0.24    0.39
  7513018-7513017      CONDUIT      1.54     0  13:41      2.76    0.12    0.23
  7513019-7513018      CONDUIT      1.16     0  13:39      2.29    0.09    0.22
  7513020-7513019      CONDUIT      1.11     0  13:35      2.42    0.09    0.20
  7816005-7513010      CONDUIT      0.08     0  13:06      0.88    0.05    0.17
  7816011-7816012      CONDUIT      1.05     0  14:35      2.51    0.08    0.19
  7816012-7513020      CONDUIT      1.06     0  14:38      2.49    0.08    0.19
  7901003-7404005      CONDUIT      0.06     0  13:16      1.22    0.03    0.12
  7901004-7901003      CONDUIT      0.04     0  13:11      1.13    0.02    0.10
  7901005-7901004      CONDUIT      0.01     0  13:08      0.54    0.00    0.06
  7411007-7411026      CONDUIT      2.02     0  13:06      6.80    0.57    1.00
  7413003-7414002      CONDUIT      3.36     0  13:14      6.55    1.16    1.00
  7413002-7413003      CONDUIT      3.49     0  13:21      7.27    1.01    1.00
  7413004-7413002      CONDUIT      3.60     0  13:22      6.82    1.54    1.00
  7414002-7414003      CONDUIT      3.33     0  13:26      7.69    0.86    1.00
  7411021-7513023      CONDUIT      2.38     0  17:25      2.21    1.30    1.00
  7411005-7411007      CONDUIT      2.02     0  13:05      7.50    1.45    1.00
  PUMP@7411031-7411021 PUMP         2.90     0  12:20              1.00
  
  
  ***************************
  Flow Classification Summary
  ***************************
  
  -------------------------------------------------------------------------------------
                      Adjusted    ---------- Fraction of Time in Flow Class ---------- 
                       /Actual         Up    Down  Sub   Sup   Up    Down  Norm  Inlet 
  Conduit               Length    Dry  Dry   Dry   Crit  Crit  Crit  Crit  Ltd   Ctrl  
  -------------------------------------------------------------------------------------
  7305003-7306005         4.67   0.00  0.00  0.00  1.00  0.00  0.00  0.00  0.54  0.00
  7305004-7305001         1.94   0.00  0.00  0.00  1.00  0.00  0.00  0.00  0.00  0.00
  7305007-7305004         4.72   0.00  0.00  0.00  1.00  0.00  0.00  0.00  0.56  0.00
  7305008-7305007         2.75   0.00  0.00  0.00  0.99  0.01  0.00  0.00  1.00  0.00
  7305010-7305024         1.25   0.00  0.00  0.00  1.00  0.00  0.00  0.00  0.04  0.00
  7305015-7305010         2.58   0.00  0.00  0.00  1.00  0.00  0.00  0.00  0.78  0.00
  7305019-7305015         3.57   0.00  0.00  0.00  0.24  0.76  0.00  0.00  0.82  0.00
  7305022-7305025         5.59   0.00  0.00  0.00  0.15  0.85  0.00  0.00  0.90  0.00
  7305023-7305022         5.90   0.00  0.00  0.00  0.04  0.01  0.00  0.95  0.04  0.00
  7305024-7305003         1.79   0.00  0.00  0.00  0.45  0.00  0.00  0.55  0.19  0.00
  7305025-7305019         7.02   0.00  0.00  0.00  0.20  0.80  0.00  0.00  0.82  0.00
  7306005-7306006         2.27   0.00  0.00  0.00  1.00  0.00  0.00  0.00  0.00  0.00
  7306006-7306007         1.69   0.00  0.00  0.00  1.00  0.00  0.00  0.00  0.53  0.00
  7306007-7306008         1.69   0.00  0.00  0.00  1.00  0.00  0.00  0.00  0.00  0.00
  7306008-7304026         1.53   0.01  0.00  0.00  0.99  0.00  0.00  0.00  0.01  0.00
  7312003-7312012         1.40   0.00  0.00  0.00  1.00  0.00  0.00  0.00  0.14  0.00
  7312005-7312003         3.43   0.00  0.00  0.00  1.00  0.00  0.00  0.00  0.89  0.00
  7312006-7312005         4.38   0.00  0.00  0.00  0.11  0.89  0.00  0.00  0.12  0.00
  7312012-7312013         8.13   0.00  0.00  0.00  1.00  0.00  0.00  0.00  0.56  0.00
  7312013-7312014         2.61   0.00  0.00  0.00  1.00  0.00  0.00  0.00  0.26  0.00
  7312014-7305003         1.90   0.00  0.00  0.00  0.80  0.00  0.00  0.20  0.24  0.00
  8006001-8007005         2.71   0.00  0.00  0.00  0.00  1.00  0.00  0.00  1.00  0.00
  8006002-8006001         4.59   0.00  0.00  0.00  0.00  1.00  0.00  0.00  0.00  0.00
  8007001-8008009         4.00   0.00  0.00  0.00  0.01  0.99  0.00  0.00  0.01  0.00
  8007002-8007001         3.93   0.00  0.00  0.00  0.01  0.99  0.00  0.00  1.00  0.00
  8007003-8007002         1.99   0.00  0.00  0.00  0.00  0.00  0.00  1.00  0.00  0.00
  8007004-8007003         2.94   0.00  0.00  0.00  0.01  0.99  0.00  0.00  0.00  0.00
  8007005-8007004         1.89   0.00  0.00  0.00  0.00  1.00  0.00  0.00  1.00  0.00
  8008002-7305022         5.97   0.00  0.01  0.00  0.14  0.85  0.00  0.00  0.03  0.00
  8008003-8008002         4.64   0.01  0.00  0.00  0.60  0.39  0.00  0.00  0.90  0.00
  8008004-8008003         2.85   0.01  0.00  0.00  0.09  0.90  0.00  0.00  0.97  0.00
  8008005-8008004         3.79   0.01  0.00  0.00  0.02  0.97  0.00  0.00  0.04  0.00
  8008006-8008005        11.78   0.01  0.00  0.00  0.02  0.98  0.00  0.00  0.26  0.00
  8008007-8008006         3.31   0.01  0.00  0.00  0.02  0.98  0.00  0.00  0.99  0.00
  8008008-8008007         2.18   0.01  0.01  0.00  0.01  0.98  0.00  0.00  0.99  0.00
  8008009-8008008         3.61   0.00  0.00  0.00  0.01  0.99  0.00  0.00  0.99  0.00
  8009001-8009012         4.36   0.00  0.00  0.00  0.00  1.00  0.00  0.00  1.00  0.00
  8009002-8009001         5.40   0.00  0.00  0.00  0.00  1.00  0.00  0.00  0.01  0.00
  8009003-8009002         1.86   0.00  0.00  0.00  0.01  0.99  0.00  0.00  0.00  0.00
  8009008-8009003         4.17   0.00  0.00  0.00  0.00  1.00  0.00  0.00  1.00  0.00
  8009009-8009008         2.30   0.00  0.00  0.00  0.50  0.50  0.00  0.00  0.04  0.00
  8009012-7305023         3.01   0.00  0.00  0.00  0.00  1.00  0.00  0.00  0.99  0.00
  8016005-8009009         5.10   0.01  0.00  0.00  0.00  0.00  0.00  0.99  0.00  0.00
  8016006-8016005         2.45   0.00  0.00  0.00  0.02  0.98  0.00  0.00  0.00  0.00
  8016007-8016006         2.05   0.00  0.00  0.00  1.00  0.00  0.00  0.00  0.00  0.00
  8016011-8016007         1.92   0.00  0.00  0.00  1.00  0.00  0.00  0.00  0.98  0.00
  8016014-8016011         1.47   0.00  0.00  0.00  1.00  0.00  0.00  0.00  0.75  0.00
  7304008-7304010         1.36   0.00  0.00  0.00  1.00  0.00  0.00  0.00  0.85  0.00
  7304010-7305007         1.11   0.00  0.00  0.00  0.51  0.00  0.00  0.49  0.22  0.00
  7304026-7304027         1.74   0.01  0.00  0.00  0.99  0.00  0.00  0.00  0.51  0.00
  7305001-7305002         1.64   0.00  0.00  0.00  1.00  0.00  0.00  0.00  0.54  0.00
  7305002-7305003         2.97   0.00  0.00  0.00  0.90  0.00  0.00  0.10  0.40  0.00
  7311002-7311001         1.57   0.00  0.00  0.00  1.00  0.00  0.00  0.00  0.00  0.00
  7311003-7311002         6.11   0.00  0.00  0.00  1.00  0.00  0.00  0.00  0.56  0.00
  7306009-7306005         5.02   0.00  0.00  0.00  0.99  0.01  0.00  0.00  0.51  0.00
  7311001-7306009         4.37   0.00  0.00  0.00  1.00  0.00  0.00  0.00  0.03  0.00
  7304028-7413012         1.86   0.00  0.00  0.00  0.64  0.00  0.00  0.36  0.01  0.00
  7304029-7304028        38.85   0.00  0.00  0.00  0.08  0.12  0.00  0.81  0.11  0.00
  7413011-7413010         1.18   0.00  0.00  0.00  1.00  0.00  0.00  0.00  0.00  0.00
  7413012-7413011         2.14   0.00  0.00  0.00  1.00  0.00  0.00  0.00  0.91  0.00
  7413010-7413009         3.14   0.00  0.00  0.00  1.00  0.00  0.00  0.00  0.02  0.00
  7413009-7413004         3.98   0.00  0.00  0.00  0.24  0.76  0.00  0.00  0.90  0.00
  7811001-7815012         1.24   0.02  0.00  0.00  0.98  0.00  0.00  0.00  0.90  0.00
  7811002-7811001         1.22   0.01  0.00  0.00  0.99  0.00  0.00  0.00  0.08  0.00
  7811003-7811002         2.84   0.01  0.00  0.00  0.99  0.00  0.00  0.00  0.94  0.00
  7811004-7811003         2.89   0.00  0.00  0.00  1.00  0.00  0.00  0.00  0.05  0.00
  7811005-7811004         7.44   0.00  0.00  0.00  1.00  0.00  0.00  0.00  0.97  0.00
  7811006-7811005         1.60   0.00  0.00  0.00  1.00  0.00  0.00  0.00  0.02  0.00
  7815001-7816013         2.02   0.00  0.00  0.00  0.00  1.00  0.00  0.00  0.99  0.00
  7815002-7815001         2.32   0.00  0.00  0.00  0.00  1.00  0.00  0.00  0.98  0.00
  7815003-7815002         3.27   0.00  0.00  0.00  0.00  1.00  0.00  0.00  0.99  0.00
  7815009-7815003        19.15   0.00  0.00  0.00  1.00  0.00  0.00  0.00  0.88  0.00
  7815010-7815009         6.65   0.00  0.03  0.00  0.97  0.00  0.00  0.00  0.94  0.00
  7815011-7815010         2.29   0.03  0.00  0.00  0.97  0.00  0.00  0.00  0.01  0.00
  7815012-7815011         1.71   0.02  0.00  0.00  0.98  0.00  0.00  0.00  0.87  0.00
  7816013-7816014         1.84   0.00  0.00  0.00  0.97  0.03  0.00  0.00  0.98  0.00
  10703001-10814004       2.29   0.00  0.00  0.00  0.05  0.95  0.00  0.00  1.00  0.00
  10703002-10703001       3.56   0.00  0.00  0.00  0.00  1.00  0.00  0.00  0.02  0.00
  10703003-10703002       1.79   0.00  0.00  0.00  0.05  0.95  0.00  0.00  0.08  0.00
  10706001-10703003       2.54   0.00  0.00  0.00  0.01  0.99  0.00  0.00  0.96  0.00
  10706002-10706001       3.01   0.00  0.00  0.00  0.01  0.99  0.00  0.00  0.01  0.00
  10706003-10706002       3.57   0.00  0.00  0.00  0.02  0.98  0.00  0.00  1.00  0.00
  10706004-10706003       6.27   0.00  0.00  0.00  0.00  1.00  0.00  0.00  1.00  0.00
  10711001-10712006       9.35   0.00  0.00  0.00  0.02  0.97  0.00  0.00  1.00  0.00
  10711002-10711001       4.46   0.01  0.00  0.00  0.00  0.99  0.00  0.00  0.00  0.00
  10711003-10711002       3.88   0.00  0.00  0.00  0.01  0.99  0.00  0.00  0.01  0.00
  10711004-10711003       3.83   0.00  0.00  0.00  0.01  0.99  0.00  0.00  0.98  0.00
  10711005-10711004       6.47   0.00  0.00  0.00  0.01  0.99  0.00  0.00  0.00  0.00
  10711006-10711005      10.93   0.00  0.00  0.00  0.95  0.05  0.00  0.00  0.99  0.00
  10712005-10706004       2.19   0.00  0.00  0.00  0.00  1.00  0.00  0.00  0.01  0.00
  10712006-10712005       2.28   0.00  0.00  0.00  0.00  0.99  0.00  0.00  0.99  0.00
  10712007-10712006       8.89   0.00  0.00  0.00  0.00  0.00  0.00  1.00  0.00  0.00
  10712008-10712007       4.12   0.00  0.00  0.00  0.00  1.00  0.00  0.00  0.96  0.00
  10713001-10712008       4.88   0.00  0.00  0.00  0.00  1.00  0.00  0.00  0.01  0.00
  10713002-10713001       8.94   0.00  0.00  0.00  0.00  1.00  0.00  0.00  0.00  0.00
  10713003-10713002       5.85   0.00  0.00  0.00  0.00  1.00  0.00  0.00  0.00  0.00
  10807001-10808001       1.00   0.00  0.00  0.00  0.00  1.00  0.00  0.00  0.99  0.00
  10807003-10807001       4.42   0.00  0.00  0.00  0.01  0.98  0.00  0.00  0.98  0.00
  10807004-10807003       8.36   0.00  0.00  0.00  0.00  1.00  0.00  0.00  0.97  0.00
  10808001-7905003        2.45   0.00  0.00  0.00  0.01  0.99  0.00  0.00  0.00  0.00
  10810001-10807004       1.52   0.00  0.00  0.00  0.06  0.94  0.00  0.00  0.00  0.00
  10810002-10810001       4.72   0.00  0.00  0.00  0.00  0.00  0.00  1.00  0.00  0.00
  10810003-10810001       2.51   0.00  0.00  0.00  1.00  0.00  0.00  0.00  1.00  0.00
  10810004-10810003       1.43   0.00  0.00  0.00  1.00  0.00  0.00  0.00  0.00  0.00
  10811001-10810004       2.10   0.00  0.00  0.00  1.00  0.00  0.00  0.00  0.97  0.00
  10811003-10811001       2.13   0.00  0.00  0.00  0.95  0.05  0.00  0.00  0.99  0.00
  10811004-10811003       2.36   0.00  0.00  0.00  0.03  0.97  0.00  0.00  1.00  0.00
  10814001-10811004       4.10   0.00  0.00  0.00  0.03  0.97  0.00  0.00  0.03  0.00
  10814002-10814007      13.97   0.00  0.00  0.00  0.01  0.99  0.00  0.00  0.92  0.00
  10814003-10814002       4.07   0.00  0.00  0.00  0.01  0.99  0.00  0.00  0.00  0.00
  10814004-10814003       4.81   0.00  0.00  0.00  0.00  1.00  0.00  0.00  0.99  0.00
  10814007-10814001       3.30   0.00  0.00  0.00  0.00  1.00  0.00  0.00  0.98  0.00
  7816014-7816015         3.40   0.00  0.00  0.00  0.01  0.98  0.00  0.00  0.00  0.00
  7816015-7816016         4.86   0.00  0.00  0.00  0.01  0.98  0.00  0.00  0.99  0.00
  7816016-7816017         8.37   0.01  0.00  0.00  0.11  0.00  0.00  0.88  0.09  0.00
  7816017-7816011         2.01   0.00  0.00  0.00  1.00  0.00  0.00  0.00  0.97  0.00
  7901008-7816017         2.53   0.00  0.00  0.00  1.00  0.00  0.00  0.00  0.16  0.00
  7901009-7901008         2.30   0.00  0.00  0.00  1.00  0.00  0.00  0.00  0.91  0.00
  7901010-7901009         2.26   0.00  0.00  0.00  1.00  0.00  0.00  0.00  0.01  0.00
  7901011-7901012         2.99   0.00  0.00  0.00  1.00  0.00  0.00  0.00  0.95  0.00
  7901012-7901010         2.90   0.00  0.00  0.00  1.00  0.00  0.00  0.00  0.97  0.00
  7903003-7906004         2.29   0.00  0.00  0.00  0.00  1.00  0.00  0.00  0.00  0.00
  7903009-7903003         6.31   0.00  0.00  0.00  0.02  0.98  0.00  0.00  1.00  0.00
  7903010-7903009         2.74   0.00  0.00  0.00  0.01  0.99  0.00  0.00  0.00  0.00
  7903011-7903010         2.73   0.00  0.00  0.00  0.00  1.00  0.00  0.00  0.99  0.00
  7904001-7903011         2.03   0.00  0.00  0.00  0.01  0.99  0.00  0.00  0.01  0.00
  7904002-7904001         5.66   0.00  0.00  0.00  0.00  0.00  0.00  1.00  0.00  0.00
  7904003-7904002         2.45   0.00  0.00  0.00  0.00  0.99  0.00  0.00  0.91  0.00
  7904004-7904001         3.98   0.00  0.00  0.00  0.00  0.00  0.00  1.00  0.00  0.00
  7905003-7904003         2.35   0.00  0.00  0.00  0.00  1.00  0.00  0.00  0.00  0.00
  7906003-7907005         2.05   0.00  0.00  0.00  1.00  0.00  0.00  0.00  0.95  0.00
  7906004-7906003         7.95   0.00  0.00  0.00  0.08  0.92  0.00  0.00  1.00  0.00
  7907001-7901011         2.32   0.00  0.00  0.00  1.00  0.00  0.00  0.00  0.87  0.00
  7907002-7907001         1.47   0.00  0.00  0.00  1.00  0.00  0.00  0.00  0.00  0.00
  7907003-7907002         1.57   0.00  0.00  0.00  1.00  0.00  0.00  0.00  0.00  0.00
  7907004-7907003         2.81   0.00  0.00  0.00  1.00  0.00  0.00  0.00  0.95  0.00
  7907005-7907004         3.52   0.00  0.00  0.00  1.00  0.00  0.00  0.00  0.04  0.00
  7304027-7413024         1.43   0.01  0.00  0.00  0.99  0.00  0.00  0.00  0.48  0.00
  7404003-7513012         8.18   0.00  0.00  0.00  0.00  0.00  0.00  1.00  0.00  0.00
  7404004-7404003         2.77   0.00  0.00  0.00  0.10  0.90  0.00  0.00  0.00  0.00
  7404005-7404004         1.81   0.00  0.00  0.00  1.00  0.00  0.00  0.00  1.00  0.00
  7411026-7411027         2.02   0.00  0.00  0.00  1.00  0.00  0.00  0.00  0.01  0.00
  7411027-7411028         2.85   0.00  0.00  0.00  1.00  0.00  0.00  0.00  0.47  0.00
  7411028-7411029         3.89   0.00  0.00  0.00  1.00  0.00  0.00  0.00  0.52  0.00
  7411029-7411030         2.66   0.02  0.00  0.00  0.48  0.00  0.00  0.50  0.00  0.00
  7411030-7411031        11.17   0.01  0.00  0.00  0.67  0.32  0.00  0.00  0.19  0.00
  7413024-7413025         1.49   0.02  0.00  0.00  0.98  0.00  0.00  0.00  0.00  0.00
  7413025-7414003         2.79   0.01  0.01  0.00  0.97  0.00  0.00  0.00  0.53  0.00
  7414001-7411030         5.18   0.00  0.00  0.00  0.49  0.00  0.00  0.51  0.00  0.00
  7414003-7414001         1.64   0.00  0.00  0.00  0.50  0.00  0.00  0.49  0.00  0.00
  7513005-7513018         6.75   0.01  0.00  0.00  0.00  0.00  0.00  0.99  0.00  0.00
  7513006-7513005         5.73   0.00  0.00  0.00  0.41  0.59  0.00  0.00  0.00  0.00
  7513007-7513006         2.20   0.00  0.00  0.00  1.00  0.00  0.00  0.00  0.95  0.00
  7513008-7513007         3.16   0.00  0.00  0.00  1.00  0.00  0.00  0.00  0.99  0.00
  7513009-7513008         8.91   0.00  0.00  0.00  1.00  0.00  0.00  0.00  0.95  0.00
  7513010-7513009         1.58   0.00  0.00  0.00  1.00  0.00  0.00  0.00  0.00  0.00
  7513012-7513007         4.86   0.00  0.00  0.00  1.00  0.00  0.00  0.00  0.97  0.00
  7513018-7513017         2.68   0.00  0.00  0.00  1.00  0.00  0.00  0.00  0.10  0.00
  7513019-7513018         2.64   0.00  0.00  0.00  1.00  0.00  0.00  0.00  0.79  0.00
  7513020-7513019         3.88   0.00  0.00  0.00  1.00  0.00  0.00  0.00  0.92  0.00
  7816005-7513010         1.63   0.00  0.00  0.00  1.00  0.00  0.00  0.00  0.98  0.00
  7816011-7816012         3.72   0.00  0.00  0.00  1.00  0.00  0.00  0.00  0.00  0.00
  7816012-7513020         2.28   0.00  0.00  0.00  1.00  0.00  0.00  0.00  0.97  0.00
  7901003-7404005         1.91   0.00  0.00  0.00  1.00  0.00  0.00  0.00  1.00  0.00
  7901004-7901003         2.41   0.00  0.00  0.00  1.00  0.00  0.00  0.00  0.99  0.00
  7901005-7901004         7.24   0.00  0.00  0.00  1.00  0.00  0.00  0.00  1.00  0.00
  7411007-7411026         9.35   0.00  0.00  0.00  0.46  0.00  0.00  0.54  0.00  0.00
  7413003-7414002         3.24   0.00  0.00  0.00  0.48  0.52  0.00  0.00  0.01  0.00
  7413002-7413003         7.34   0.00  0.00  0.00  0.47  0.00  0.00  0.53  0.00  0.00
  7413004-7413002         4.53   0.00  0.00  0.00  0.47  0.53  0.00  0.00  0.23  0.00
  7414002-7414003        56.45   0.00  0.00  0.00  0.47  0.02  0.00  0.50  0.00  0.00
  7411021-7513023         1.00   0.00  0.00  0.00  1.00  0.00  0.00  0.00  0.19  0.00
  7411005-7411007         1.27   0.00  0.00  0.00  0.46  0.54  0.00  0.00  0.00  0.00
  
  
  *************************
  Conduit Surcharge Summary
  *************************
  
  ----------------------------------------------------------------------------
                                                           Hours        Hours 
                         --------- Hours Full --------   Above Full   Capacity
  Conduit                Both Ends  Upstream  Dnstream   Normal Flow   Limited
  ----------------------------------------------------------------------------
  7305003-7306005            10.36     10.36     10.42      0.01         0.01
  7305004-7305001             7.30      7.30     10.23      0.01         0.01
  7305007-7305004             6.23      6.23      7.30      0.01         0.01
  7305008-7305007             0.01      0.01      6.23      0.01         0.01
  7305010-7305024             4.24      4.96      4.94      3.95         3.21
  7305015-7305010             4.36      4.36      4.96      2.23         2.23
  7305019-7305015             3.77      3.77      4.36      0.26         0.26
  7305022-7305025             1.73      1.73      3.00      0.01         0.01
  7305023-7305022             0.01      0.01      0.65      0.01         0.01
  7305024-7305003             4.94      4.94     10.39      0.29         0.01
  7305025-7305019             3.00      3.00      3.77      0.01         0.01
  7306005-7306006            10.42     10.42     10.45      0.01         0.01
  7306006-7306007            10.45     10.45     10.49      0.01         0.01
  7306007-7306008            10.49     10.49     10.51      0.01         0.01
  7306008-7304026            10.51     10.51     10.54      0.01         0.01
  7312003-7312012             4.98      4.98      9.09      0.01         0.01
  7312005-7312003             0.01      0.01      4.98      0.01         0.01
  7312012-7312013             9.09      9.09     10.26      0.01         0.01
  7312013-7312014            10.26     10.26     10.31      0.01         0.01
  7312014-7305003            10.31     10.31     10.39      0.01         0.01
  8008002-7305022             1.59      1.59      1.73      0.89         0.56
  8008003-8008002             1.05      1.05      1.59      0.01         0.01
  8008004-8008003             0.01      0.01      1.06      0.01         0.01
  7304008-7304010             1.49      1.49      3.44      0.01         0.01
  7304010-7305007             3.44      3.44      5.92      0.01         0.01
  7304026-7304027            10.54     10.54     10.60      0.01         0.01
  7305001-7305002            10.23     10.23     10.34      0.01         0.01
  7305002-7305003            10.34     10.34     10.39      0.01         0.01
  7311002-7311001            10.20     10.20     10.34      0.01         0.01
  7311003-7311002            10.20     10.20     10.20      0.01         0.01
  7306009-7306005            10.40     10.40     10.75      0.01         0.01
  7311001-7306009            10.34     10.34     10.40      0.01         0.01
  7304028-7413012             1.43      1.43      1.71      0.01         0.01
  7304029-7304028             0.81      0.81      1.28      0.01         0.01
  7413011-7413010             1.92      2.16      1.92      2.30         1.92
  7413012-7413011             1.73      1.73      2.06      0.01         0.01
  7413010-7413009             1.91      1.92      2.01      2.02         1.83
  7413009-7413004             2.01      2.01      4.56      0.41         0.40
  7304027-7413024            10.60     10.60     10.65      0.01         0.01
  7411026-7411027            10.57     10.57     10.62      0.01         0.01
  7411027-7411028            10.62     10.62     10.69      0.01         0.01
  7411028-7411029            10.69     10.69     10.74      0.01         0.01
  7411029-7411030            10.84     10.84     10.85      0.61         0.09
  7411030-7411031            10.99     10.99     12.94      0.01         0.01
  7413024-7413025            10.65     10.65     10.71      0.01         0.01
  7413025-7414003            10.71     10.71     10.80      0.01         0.01
  7414001-7411030            10.84     10.84     10.90      0.01         0.01
  7414003-7414001            10.72     10.72     10.84      0.01         0.01
  7411007-7411026            10.49     10.49     10.57      0.01         0.01
  7413003-7414002            10.76     10.98     10.76      0.85         0.56
  7413002-7413003            10.62     10.62     10.65      0.01         0.01
  7413004-7413002             3.94      4.56     10.62      1.63         0.90
  7414002-7414003            10.76     10.76     10.82      0.01         0.01
  7411021-7513023            12.49     12.49     12.68     12.69        12.49
  7411005-7411007            10.50     11.42     10.50      1.96         1.05
  
  
  ***************
  Pumping Summary
  ***************
  
  ---------------------------------------------------------------------------------------------------------
                                                  Min       Avg       Max     Total     Power    % Time Off
                        Percent   Number of      Flow      Flow      Flow    Volume     Usage    Pump Curve
  Pump                 Utilized   Start-Ups       CFS       CFS       CFS  10^6 gal     Kw-hr    Low   High
  ---------------------------------------------------------------------------------------------------------
  PUMP@7411031-7411021    98.23           3      0.00      2.13      2.90     1.317     74.15   45.2   49.5
  

  Analysis begun on:  Fri Nov 29 09:04:49 2019
  Analysis ended on:  Fri Nov 29 09:04:49 2019
  Total elapsed time: < 1 sec