
  EPA STORM WATER MANAGEMENT MODEL - VERSION 5.1 (Build 5.1.013)
  --------------------------------------------------------------

  
  *********************************************************
  NOTE: The summary statistics displayed in this report are
  based on results found at every computational time step,  
  not just on results from each reporting time step.
  *********************************************************
  
  ****************
  Analysis Options
  ****************
  Flow Units ............... CFS
  Process Models:
    Rainfall/Runoff ........ NO
    RDII ................... NO
    Snowmelt ............... NO
    Groundwater ............ NO
    Flow Routing ........... YES
    Ponding Allowed ........ NO
    Water Quality .......... NO
  Flow Routing Method ...... DYNWAVE
  Surcharge Method ......... EXTRAN
  Starting Date ............ 01/01/2002 00:00:00
  Ending Date .............. 01/01/2002 06:00:00
  Antecedent Dry Days ...... 5.0
  Report Time Step ......... 00:05:00
  Routing Time Step ........ 30.00 sec
  Variable Time Step ....... YES
  Maximum Trials ........... 8
  Number of Threads ........ 1
  Head Tolerance ........... 0.001000 ft
  
  
  **************************        Volume        Volume
  Flow Routing Continuity        acre-feet      10^6 gal
  **************************     ---------     ---------
  Dry Weather Inflow .......         0.000         0.000
  Wet Weather Inflow .......         0.000         0.000
  Groundwater Inflow .......         0.000         0.000
  RDII Inflow ..............         0.000         0.000
  External Inflow ..........         0.000         0.000
  External Outflow .........         0.000         0.000
  Flooding Loss ............         0.000         0.000
  Evaporation Loss .........         0.000         0.000
  Exfiltration Loss ........         0.000         0.000
  Initial Stored Volume ....         0.000         0.000
  Final Stored Volume ......         0.000         0.000
  Continuity Error (%) .....         0.000
  
  
  ***************************
  Time-Step Critical Elements
  ***************************
  None
  
  
  ********************************
  Highest Flow Instability Indexes
  ********************************
  All links are stable.
  
  
  ******************
  Node Depth Summary
  ******************
  
  ---------------------------------------------------------------------------------
                                 Average  Maximum  Maximum  Time of Max    Reported
                                   Depth    Depth      HGL   Occurrence   Max Depth
  Node                 Type         Feet     Feet     Feet  days hr:min        Feet
  ---------------------------------------------------------------------------------
  AI-001               JUNCTION  -nan(ind)     0.00  5093.05     0  00:00        0.00
  AI-002               JUNCTION  -nan(ind)     0.00  5083.58     0  00:00        0.00
  AI-003               JUNCTION  -nan(ind)     0.00  5078.88     0  00:00        0.00
  AI-004               JUNCTION  -nan(ind)     0.00  5074.18     0  00:00        0.00
  AI-005               JUNCTION  -nan(ind)     0.00  5069.31     0  00:00        0.00
  AI-006               JUNCTION  -nan(ind)     0.00  5068.27     0  00:00        0.00
  AI-007               JUNCTION  -nan(ind)     0.00  5066.32     0  00:00        0.00
  AI-008               JUNCTION  -nan(ind)     0.00  5061.09     0  00:00        0.00
  AI-009               JUNCTION  -nan(ind)     0.00  5052.30     0  00:00        0.00
  AI-010               JUNCTION  -nan(ind)     0.00  5052.11     0  00:00        0.00
  AI-011               JUNCTION  -nan(ind)     0.00  5050.96     0  00:00        0.00
  AI-012               JUNCTION  -nan(ind)     0.00  5049.27     0  00:00        0.00
  AI-013               JUNCTION  -nan(ind)     0.00  5047.79     0  00:00        0.00
  AI-014               JUNCTION  -nan(ind)     0.00  5046.31     0  00:00        0.00
  AI-015               JUNCTION  -nan(ind)     0.00  5044.54     0  00:00        0.00
  AI-016               JUNCTION  -nan(ind)     0.00  5042.86     0  00:00        0.00
  AI-017               JUNCTION  -nan(ind)     0.00  5040.66     0  00:00        0.00
  AI-018               JUNCTION  -nan(ind)     0.00  5038.46     0  00:00        0.00
  AI-019               JUNCTION  -nan(ind)     0.00  5036.10     0  00:00        0.00
  AI-020               JUNCTION  -nan(ind)     0.00  5035.10     0  00:00        0.00
  AI-021               JUNCTION  -nan(ind)     0.00  5033.46     0  00:00        0.00
  AI-022               JUNCTION  -nan(ind)     0.00  5031.82     0  00:00        0.00
  AI-023               JUNCTION  -nan(ind)     0.00  5024.50     0  00:00        0.00
  AI-024               JUNCTION  -nan(ind)     0.00  5013.95     0  00:00        0.00
  AI-025               JUNCTION  -nan(ind)     0.00  5012.31     0  00:00        0.00
  AI-026               JUNCTION  -nan(ind)     0.00  5010.67     0  00:00        0.00
  AI-027               JUNCTION  -nan(ind)     0.00  5006.70     0  00:00        0.00
  AI-100               JUNCTION  -nan(ind)     0.00  5042.60     0  00:00        0.00
  AI-110               JUNCTION  -nan(ind)     0.00  5037.90     0  00:00        0.00
  AP-01                JUNCTION  -nan(ind)     0.00  5057.39     0  00:00        0.00
  AP-02                JUNCTION  -nan(ind)     0.00  5058.51     0  00:00        0.00
  AP-03                JUNCTION  -nan(ind)     0.00  5060.98     0  00:00        0.00
  AP-04                JUNCTION  -nan(ind)     0.00  5062.67     0  00:00        0.00
  AP-05                JUNCTION  -nan(ind)     0.00  5065.98     0  00:00        0.00
  AP-06                JUNCTION  -nan(ind)     0.00  5069.56     0  00:00        0.00
  AP-07                JUNCTION  -nan(ind)     0.00  5072.10     0  00:00        0.00
  AP-08                JUNCTION  -nan(ind)     0.00  5074.07     0  00:00        0.00
  AP1-01               JUNCTION  -nan(ind)     0.00  5074.72     0  00:00        0.00
  AP1-02               JUNCTION  -nan(ind)     0.00  5076.48     0  00:00        0.00
  AP1-03               JUNCTION  -nan(ind)     0.00  5077.90     0  00:00        0.00
  AP1-04               JUNCTION  -nan(ind)     0.00  5080.99     0  00:00        0.00
  AP1-05               JUNCTION  -nan(ind)     0.00  5083.06     0  00:00        0.00
  AP1-06               JUNCTION  -nan(ind)     0.00  5091.80     0  00:00        0.00
  AP1-07               JUNCTION  -nan(ind)     0.00  5105.46     0  00:00        0.00
  AP2-01               JUNCTION  -nan(ind)     0.00  5075.61     0  00:00        0.00
  AP2-02               JUNCTION  -nan(ind)     0.00  5086.47     0  00:00        0.00
  AP2-03               JUNCTION  -nan(ind)     0.00  5097.27     0  00:00        0.00
  AP2-04               JUNCTION  -nan(ind)     0.00  5101.05     0  00:00        0.00
  AP2-05               JUNCTION  -nan(ind)     0.00  5111.34     0  00:00        0.00
  AP2-06               JUNCTION  -nan(ind)     0.00  5120.46     0  00:00        0.00
  AP3-01               JUNCTION  -nan(ind)     0.00  5077.50     0  00:00        0.00
  AP3-02               JUNCTION  -nan(ind)     0.00  5079.93     0  00:00        0.00
  ARE-001              JUNCTION  -nan(ind)     0.00  5198.82     0  00:00        0.00
  ARE-002              JUNCTION  -nan(ind)     0.00  5197.93     0  00:00        0.00
  ARE-004              JUNCTION  -nan(ind)     0.00  5196.69     0  00:00        0.00
  ARE-005              JUNCTION  -nan(ind)     0.00  5195.50     0  00:00        0.00
  ARE-006              JUNCTION  -nan(ind)     0.00  5194.78     0  00:00        0.00
  ARE-025              JUNCTION  -nan(ind)     0.00  5193.79     0  00:00        0.00
  ARE-026              JUNCTION  -nan(ind)     0.00  5191.53     0  00:00        0.00
  ARE-027              JUNCTION  -nan(ind)     0.00  5190.51     0  00:00        0.00
  ARE-029              JUNCTION  -nan(ind)     0.00  5187.37     0  00:00        0.00
  ARE-030              JUNCTION  -nan(ind)     0.00  5186.36     0  00:00        0.00
  ARE-042              JUNCTION  -nan(ind)     0.00  5180.63     0  00:00        0.00
  ARE-043              JUNCTION  -nan(ind)     0.00  5177.65     0  00:00        0.00
  ARE-054              JUNCTION  -nan(ind)     0.00  5176.08     0  00:00        0.00
  ARE-055              JUNCTION  -nan(ind)     0.00  5174.64     0  00:00        0.00
  ARE-057              JUNCTION  -nan(ind)     0.00  5172.67     0  00:00        0.00
  ARE-115              JUNCTION  -nan(ind)     0.00  5170.40     0  00:00        0.00
  ARE-116              JUNCTION  -nan(ind)     0.00  5168.77     0  00:00        0.00
  ARE-117              JUNCTION  -nan(ind)     0.00  5168.02     0  00:00        0.00
  ARE-118              JUNCTION  -nan(ind)     0.00  5167.22     0  00:00        0.00
  ARE-119              JUNCTION  -nan(ind)     0.00  5166.69     0  00:00        0.00
  ARE-120              JUNCTION  -nan(ind)     0.00  5166.25     0  00:00        0.00
  ARE-121              JUNCTION  -nan(ind)     0.00  5164.88     0  00:00        0.00
  ARE-122              JUNCTION  -nan(ind)     0.00  5163.82     0  00:00        0.00
  ARE-123              JUNCTION  -nan(ind)     0.00  5163.28     0  00:00        0.00
  ARE-124              JUNCTION  -nan(ind)     0.00  5162.79     0  00:00        0.00
  ARE-125              JUNCTION  -nan(ind)     0.00  5156.08     0  00:00        0.00
  ARE-126              JUNCTION  -nan(ind)     0.00  5153.80     0  00:00        0.00
  ARE-127              JUNCTION  -nan(ind)     0.00  5149.84     0  00:00        0.00
  ARE-128              JUNCTION  -nan(ind)     0.00  5147.91     0  00:00        0.00
  ARE-129              JUNCTION  -nan(ind)     0.00  5140.99     0  00:00        0.00
  ARE-130              JUNCTION  -nan(ind)     0.00  5137.31     0  00:00        0.00
  ARE-131              JUNCTION  -nan(ind)     0.00  5125.61     0  00:00        0.00
  ARE-132              JUNCTION  -nan(ind)     0.00  5122.77     0  00:00        0.00
  ARE-133              JUNCTION  -nan(ind)     0.00  5119.57     0  00:00        0.00
  ARE-134              JUNCTION  -nan(ind)     0.00  5109.32     0  00:00        0.00
  ARE-135              JUNCTION  -nan(ind)     0.00  5101.14     0  00:00        0.00
  ARE-136              JUNCTION  -nan(ind)     0.00  5098.38     0  00:00        0.00
  ARE-137              JUNCTION  -nan(ind)     0.00  5091.84     0  00:00        0.00
  ARE-138              JUNCTION  -nan(ind)     0.00  5088.65     0  00:00        0.00
  ARE-139              JUNCTION  -nan(ind)     0.00  5084.17     0  00:00        0.00
  ARE-140              JUNCTION  -nan(ind)     0.00  5083.37     0  00:00        0.00
  ARW-025              JUNCTION  -nan(ind)     0.00  5209.27     0  00:00        0.00
  ARW-026              JUNCTION  -nan(ind)     0.00  5208.19     0  00:00        0.00
  ARW-029              JUNCTION  -nan(ind)     0.00  5205.81     0  00:00        0.00
  ARW-035              JUNCTION  -nan(ind)     0.00  5203.96     0  00:00        0.00
  ARW-036              JUNCTION  -nan(ind)     0.00  5203.25     0  00:00        0.00
  ARW-037              JUNCTION  -nan(ind)     0.00  5202.17     0  00:00        0.00
  ARW-038              JUNCTION  -nan(ind)     0.00  5202.10     0  00:00        0.00
  ARW-039              JUNCTION  -nan(ind)     0.00  5199.04     0  00:00        0.00
  CC-1                 JUNCTION  -nan(ind)     0.00  5009.27     0  00:00        0.00
  CC-10                JUNCTION  -nan(ind)     0.00  5026.90     0  00:00        0.00
  CC-11                JUNCTION  -nan(ind)     0.00  5027.80     0  00:00        0.00
  CC-12                JUNCTION  -nan(ind)     0.00  5028.50     0  00:00        0.00
  CC-13                JUNCTION  -nan(ind)     0.00  5029.00     0  00:00        0.00
  CC-17                JUNCTION  -nan(ind)     0.00  5033.13     0  00:00        0.00
  CC-17A               JUNCTION  -nan(ind)     0.00  5032.51     0  00:00        0.00
  CC-18                JUNCTION  -nan(ind)     0.00  5034.04     0  00:00        0.00
  CC-19                JUNCTION  -nan(ind)     0.00  5035.18     0  00:00        0.00
  CC-2                 JUNCTION  -nan(ind)     0.00  5010.87     0  00:00        0.00
  CC-20                JUNCTION  -nan(ind)     0.00  5036.15     0  00:00        0.00
  CC-21                JUNCTION  -nan(ind)     0.00  5037.15     0  00:00        0.00
  CC-26                JUNCTION  -nan(ind)     0.00  5048.90     0  00:00        0.00
  CC-26.A              JUNCTION  -nan(ind)     0.00  5050.30     0  00:00        0.00
  CC-27                JUNCTION  -nan(ind)     0.00  5051.90     0  00:00        0.00
  CC-28                JUNCTION  -nan(ind)     0.00  5053.20     0  00:00        0.00
  CC-29                JUNCTION  -nan(ind)     0.00  5053.90     0  00:00        0.00
  CC-3                 JUNCTION  -nan(ind)     0.00  5014.17     0  00:00        0.00
  CC-30                JUNCTION  -nan(ind)     0.00  5054.30     0  00:00        0.00
  CC-31                JUNCTION  -nan(ind)     0.00  5058.60     0  00:00        0.00
  CC-32                JUNCTION  -nan(ind)     0.00  5060.40     0  00:00        0.00
  CC-33                JUNCTION  -nan(ind)     0.00  5064.00     0  00:00        0.00
  CC-34                JUNCTION  -nan(ind)     0.00  5050.96     0  00:00        0.00
  CC-35                JUNCTION  -nan(ind)     0.00  5069.20     0  00:00        0.00
  CC-35.1              JUNCTION  -nan(ind)     0.00  5071.60     0  00:00        0.00
  CC-36                JUNCTION  -nan(ind)     0.00  5071.26     0  00:00        0.00
  CC-37                JUNCTION  -nan(ind)     0.00  5074.75     0  00:00        0.00
  CC-37.1              JUNCTION  -nan(ind)     0.00  5075.90     0  00:00        0.00
  CC-38                JUNCTION  -nan(ind)     0.00  5078.60     0  00:00        0.00
  CC-38.1              JUNCTION  -nan(ind)     0.00  5081.41     0  00:00        0.00
  CC-39                JUNCTION  -nan(ind)     0.00  5084.74     0  00:00        0.00
  CC-4                 JUNCTION  -nan(ind)     0.00  5017.33     0  00:00        0.00
  CC-40                JUNCTION  -nan(ind)     0.00  5086.88     0  00:00        0.00
  CC-41                JUNCTION  -nan(ind)     0.00  5089.80     0  00:00        0.00
  CC-42                JUNCTION  -nan(ind)     0.00  5094.38     0  00:00        0.00
  CC-43                JUNCTION  -nan(ind)     0.00  5102.35     0  00:00        0.00
  CC-5                 JUNCTION  -nan(ind)     0.00  5021.57     0  00:00        0.00
  CC-6                 JUNCTION  -nan(ind)     0.00  5023.11     0  00:00        0.00
  CC-7                 JUNCTION  -nan(ind)     0.00  5024.47     0  00:00        0.00
  CC-8                 JUNCTION  -nan(ind)     0.00  5025.57     0  00:00        0.00
  CC-9                 JUNCTION  -nan(ind)     0.00  5026.25     0  00:00        0.00
  CC1-01               JUNCTION  -nan(ind)     0.00  5106.19     0  00:00        0.00
  CC1-02               JUNCTION  -nan(ind)     0.00  5107.88     0  00:00        0.00
  CC1-03               JUNCTION  -nan(ind)     0.00  5121.60     0  00:00        0.00
  CC1-04               JUNCTION  -nan(ind)     0.00  5127.35     0  00:00        0.00
  CC1-05               JUNCTION  -nan(ind)     0.00  5154.91     0  00:00        0.00
  CC2-00               JUNCTION  -nan(ind)     0.00  5104.27     0  00:00        0.00
  CC2-01               JUNCTION  -nan(ind)     0.00  5105.11     0  00:00        0.00
  CC2-02               JUNCTION  -nan(ind)     0.00  5106.09     0  00:00        0.00
  CC2-03               JUNCTION  -nan(ind)     0.00  5125.76     0  00:00        0.00
  CC2-04               JUNCTION  -nan(ind)     0.00  5139.64     0  00:00        0.00
  CC2-05               JUNCTION  -nan(ind)     0.00  5155.10     0  00:00        0.00
  CC2-06               JUNCTION  -nan(ind)     0.00  5162.10     0  00:00        0.00
  CC2-07               JUNCTION  -nan(ind)     0.00  5165.20     0  00:00        0.00
  CC2-08               JUNCTION  -nan(ind)     0.00  5180.41     0  00:00        0.00
  CC2-09               JUNCTION  -nan(ind)     0.00  5196.67     0  00:00        0.00
  CC2-10               JUNCTION  -nan(ind)     0.00  5127.84     0  00:00        0.00
  CC2-11               JUNCTION  -nan(ind)     0.00  5141.04     0  00:00        0.00
  CC2-12               JUNCTION  -nan(ind)     0.00  5142.95     0  00:00        0.00
  CC2-13               JUNCTION  -nan(ind)     0.00  5156.63     0  00:00        0.00
  CC2-14               JUNCTION  -nan(ind)     0.00  5160.45     0  00:00        0.00
  CC3-01               JUNCTION  -nan(ind)     0.00  5144.75     0  00:00        0.00
  CC3-02               JUNCTION  -nan(ind)     0.00  5150.99     0  00:00        0.00
  CC3-03               JUNCTION  -nan(ind)     0.00  5158.15     0  00:00        0.00
  CC3-04               JUNCTION  -nan(ind)     0.00  5178.31     0  00:00        0.00
  CC3-05               JUNCTION  -nan(ind)     0.00  5195.70     0  00:00        0.00
  CC4-01               JUNCTION  -nan(ind)     0.00  5115.50     0  00:00        0.00
  CC4-02               JUNCTION  -nan(ind)     0.00  5121.48     0  00:00        0.00
  CC4-03               JUNCTION  -nan(ind)     0.00  5139.23     0  00:00        0.00
  CC5-01               JUNCTION  -nan(ind)     0.00  5086.11     0  00:00        0.00
  CC5-02               JUNCTION  -nan(ind)     0.00  5097.67     0  00:00        0.00
  CC5-03               JUNCTION  -nan(ind)     0.00  5126.59     0  00:00        0.00
  CCM-01               JUNCTION  -nan(ind)     0.00  5095.22     0  00:00        0.00
  CCM-02               JUNCTION  -nan(ind)     0.00  5098.96     0  00:00        0.00
  CCM-03               JUNCTION  -nan(ind)     0.00  5104.56     0  00:00        0.00
  CCM-04               JUNCTION  -nan(ind)     0.00  5106.45     0  00:00        0.00
  CCM-06               JUNCTION  -nan(ind)     0.00  5109.10     0  00:00        0.00
  CCM-07               JUNCTION  -nan(ind)     0.00  5110.34     0  00:00        0.00
  CCM-08               JUNCTION  -nan(ind)     0.00  5111.41     0  00:00        0.00
  CCM-09               JUNCTION  -nan(ind)     0.00  5113.36     0  00:00        0.00
  CCM-10               JUNCTION  -nan(ind)     0.00  5116.01     0  00:00        0.00
  CCM-11               JUNCTION  -nan(ind)     0.00  5124.58     0  00:00        0.00
  CCM-13               JUNCTION  -nan(ind)     0.00  5133.51     0  00:00        0.00
  CCM-14               JUNCTION  -nan(ind)     0.00  5139.34     0  00:00        0.00
  CCM-15               JUNCTION  -nan(ind)     0.00  5142.66     0  00:00        0.00
  CFE-012              JUNCTION  -nan(ind)     0.00  5091.84     0  00:00        0.00
  CFE-013              JUNCTION  -nan(ind)     0.00  5089.54     0  00:00        0.00
  CFE-016              JUNCTION  -nan(ind)     0.00  5085.30     0  00:00        0.00
  CFE-017              JUNCTION  -nan(ind)     0.00  5084.21     0  00:00        0.00
  CFE-022              JUNCTION  -nan(ind)     0.00  5083.29     0  00:00        0.00
  CFE-023              JUNCTION  -nan(ind)     0.00  5082.06     0  00:00        0.00
  CFE-023A             JUNCTION  -nan(ind)     0.00  5079.70     0  00:00        0.00
  CFW-006              JUNCTION  -nan(ind)     0.00  5113.45     0  00:00        0.00
  CFW-007              JUNCTION  -nan(ind)     0.00  5111.36     0  00:00        0.00
  CFW-012              JUNCTION  -nan(ind)     0.00  5106.08     0  00:00        0.00
  CFW-013              JUNCTION  -nan(ind)     0.00  5102.40     0  00:00        0.00
  CFW-016              JUNCTION  -nan(ind)     0.00  5100.68     0  00:00        0.00
  CFW-029              JUNCTION  -nan(ind)     0.00  5097.44     0  00:00        0.00
  CFW-030              JUNCTION  -nan(ind)     0.00  5094.76     0  00:00        0.00
  CFW-031              JUNCTION  -nan(ind)     0.00  5093.32     0  00:00        0.00
  CFW-032              JUNCTION  -nan(ind)     0.00  5092.08     0  00:00        0.00
  CFW-033              JUNCTION  -nan(ind)     0.00  5090.93     0  00:00        0.00
  CFW-048              JUNCTION  -nan(ind)     0.00  5106.89     0  00:00        0.00
  CFW-049              JUNCTION  -nan(ind)     0.00  5106.31     0  00:00        0.00
  CFW-058              JUNCTION  -nan(ind)     0.00  5105.52     0  00:00        0.00
  CFW-059              JUNCTION  -nan(ind)     0.00  5104.96     0  00:00        0.00
  CFW-060              JUNCTION  -nan(ind)     0.00  5103.61     0  00:00        0.00
  CFW-061              JUNCTION  -nan(ind)     0.00  5100.64     0  00:00        0.00
  CFW-062              JUNCTION  -nan(ind)     0.00  5099.89     0  00:00        0.00
  CFW-067              JUNCTION  -nan(ind)     0.00  5099.55     0  00:00        0.00
  CFW-068              JUNCTION  -nan(ind)     0.00  5098.79     0  00:00        0.00
  CFW-069              JUNCTION  -nan(ind)     0.00  5097.12     0  00:00        0.00
  CFW-070              JUNCTION  -nan(ind)     0.00  5120.50     0  00:00        0.00
  CFW-071              JUNCTION  -nan(ind)     0.00  5114.92     0  00:00        0.00
  CFW-073              JUNCTION  -nan(ind)     0.00  5113.17     0  00:00        0.00
  CFW-074              JUNCTION  -nan(ind)     0.00  5111.50     0  00:00        0.00
  CFW-075              JUNCTION  -nan(ind)     0.00  5111.00     0  00:00        0.00
  CL-001               JUNCTION  -nan(ind)     0.00  5088.66     0  00:00        0.00
  CL-002               JUNCTION  -nan(ind)     0.00  5089.50     0  00:00        0.00
  CL-003               JUNCTION  -nan(ind)     0.00  5095.66     0  00:00        0.00
  CL-004               JUNCTION  -nan(ind)     0.00  5109.10     0  00:00        0.00
  CL-005               JUNCTION  -nan(ind)     0.00  5118.28     0  00:00        0.00
  CL-006               JUNCTION  -nan(ind)     0.00  5092.38     0  00:00        0.00
  CL-007               JUNCTION  -nan(ind)     0.00  5095.65     0  00:00        0.00
  CL-008               JUNCTION  -nan(ind)     0.00  5097.61     0  00:00        0.00
  COM-1                JUNCTION  -nan(ind)     0.00  5048.60     0  00:00        0.00
  COM-10               JUNCTION  -nan(ind)     0.00  5091.50     0  00:00        0.00
  COM-11               JUNCTION  -nan(ind)     0.00  5101.37     0  00:00        0.00
  COM-12               JUNCTION  -nan(ind)     0.00  5114.87     0  00:00        0.00
  COM-2                JUNCTION  -nan(ind)     0.00  5063.38     0  00:00        0.00
  COM-3                JUNCTION  -nan(ind)     0.00  5069.43     0  00:00        0.00
  COM-4                JUNCTION  -nan(ind)     0.00  5088.22     0  00:00        0.00
  COM-5                JUNCTION  -nan(ind)     0.00  5137.17     0  00:00        0.00
  COM-6                JUNCTION  -nan(ind)     0.00  5147.76     0  00:00        0.00
  COM-7                JUNCTION  -nan(ind)     0.00  5060.82     0  00:00        0.00
  COM-8                JUNCTION  -nan(ind)     0.00  5079.68     0  00:00        0.00
  COM-9                JUNCTION  -nan(ind)     0.00  5071.46     0  00:00        0.00
  COM-9A               JUNCTION  -nan(ind)     0.00  5067.36     0  00:00        0.00
  CR-001               JUNCTION  -nan(ind)     0.00  4998.53     0  00:00        0.00
  CR-002               JUNCTION  -nan(ind)     0.00  5002.62     0  00:00        0.00
  CR-003               JUNCTION  -nan(ind)     0.00  5014.68     0  00:00        0.00
  CR-004               JUNCTION  -nan(ind)     0.00  5029.51     0  00:00        0.00
  CR-005               JUNCTION  -nan(ind)     0.00  5041.06     0  00:00        0.00
  CR-007               JUNCTION  -nan(ind)     0.00  5022.75     0  00:00        0.00
  CR-008               JUNCTION  -nan(ind)     0.00  5027.45     0  00:00        0.00
  CR-009               JUNCTION  -nan(ind)     0.00  5034.18     0  00:00        0.00
  CR-010               JUNCTION  -nan(ind)     0.00  5037.81     0  00:00        0.00
  CR-011               JUNCTION  -nan(ind)     0.00  5043.83     0  00:00        0.00
  CR-012               JUNCTION  -nan(ind)     0.00  5049.65     0  00:00        0.00
  CR-013               JUNCTION  -nan(ind)     0.00  5058.87     0  00:00        0.00
  CR-015               JUNCTION  -nan(ind)     0.00  5005.24     0  00:00        0.00
  CR-016               JUNCTION  -nan(ind)     0.00  5011.70     0  00:00        0.00
  CR-017               JUNCTION  -nan(ind)     0.00  5015.40     0  00:00        0.00
  CR-018               JUNCTION  -nan(ind)     0.00  5017.46     0  00:00        0.00
  CR-019               JUNCTION  -nan(ind)     0.00  5020.43     0  00:00        0.00
  CR-020               JUNCTION  -nan(ind)     0.00  5023.33     0  00:00        0.00
  CR-021               JUNCTION  -nan(ind)     0.00  5026.47     0  00:00        0.00
  CR-022               JUNCTION  -nan(ind)     0.00  5028.15     0  00:00        0.00
  CR-023               JUNCTION  -nan(ind)     0.00  5021.90     0  00:00        0.00
  CR-024               JUNCTION  -nan(ind)     0.00  5027.20     0  00:00        0.00
  CR-025               JUNCTION  -nan(ind)     0.00  5031.42     0  00:00        0.00
  CR-026               JUNCTION  -nan(ind)     0.00  5033.35     0  00:00        0.00
  CR-027               JUNCTION  -nan(ind)     0.00  5048.66     0  00:00        0.00
  CR-028               JUNCTION  -nan(ind)     0.00  5060.49     0  00:00        0.00
  CR-030               JUNCTION  -nan(ind)     0.00  4988.75     0  00:00        0.00
  CR-031               JUNCTION  -nan(ind)     0.00  5003.91     0  00:00        0.00
  CR-032               JUNCTION  -nan(ind)     0.00  5012.11     0  00:00        0.00
  CR-040               JUNCTION  -nan(ind)     0.00  5000.00     0  00:00        0.00
  CR-041               JUNCTION  -nan(ind)     0.00  5000.47     0  00:00        0.00
  CR-042               JUNCTION  -nan(ind)     0.00  5029.56     0  00:00        0.00
  CR-043               JUNCTION  -nan(ind)     0.00  5037.73     0  00:00        0.00
  CR-044               JUNCTION  -nan(ind)     0.00  5043.58     0  00:00        0.00
  CR-045               JUNCTION  -nan(ind)     0.00  5052.21     0  00:00        0.00
  CS-2                 JUNCTION  -nan(ind)     0.00  5046.68     0  00:00        0.00
  CS-2A                JUNCTION  -nan(ind)     0.00  5046.09     0  00:00        0.00
  EH-1                 JUNCTION  -nan(ind)     0.00  5132.79     0  00:00        0.00
  EH-2                 JUNCTION  -nan(ind)     0.00  5130.84     0  00:00        0.00
  GV-10C               JUNCTION  -nan(ind)     0.00  5026.13     0  00:00        0.00
  GV-10F               JUNCTION  -nan(ind)     0.00  5064.52     0  00:00        0.00
  GV-11C               JUNCTION  -nan(ind)     0.00  5026.71     0  00:00        0.00
  GV-11F               JUNCTION  -nan(ind)     0.00  5063.70     0  00:00        0.00
  GV-12C               JUNCTION  -nan(ind)     0.00  5027.78     0  00:00        0.00
  GV-12F               JUNCTION  -nan(ind)     0.00  5063.10     0  00:00        0.00
  GV-13C               JUNCTION  -nan(ind)     0.00  5028.74     0  00:00        0.00
  GV-13F               JUNCTION  -nan(ind)     0.00  5059.08     0  00:00        0.00
  GV-14C               JUNCTION  -nan(ind)     0.00  5029.43     0  00:00        0.00
  GV-14F               JUNCTION  -nan(ind)     0.00  5056.49     0  00:00        0.00
  GV-15C               JUNCTION  -nan(ind)     0.00  5029.81     0  00:00        0.00
  GV-15F               JUNCTION  -nan(ind)     0.00  5054.74     0  00:00        0.00
  GV-16C               JUNCTION  -nan(ind)     0.00  5030.46     0  00:00        0.00
  GV-16F               JUNCTION  -nan(ind)     0.00  5049.44     0  00:00        0.00
  GV-17C               JUNCTION  -nan(ind)     0.00  5030.95     0  00:00        0.00
  GV-17F               JUNCTION  -nan(ind)     0.00  5047.27     0  00:00        0.00
  GV-18C               JUNCTION  -nan(ind)     0.00  5031.76     0  00:00        0.00
  GV-19C               JUNCTION  -nan(ind)     0.00  5036.49     0  00:00        0.00
  GV-1C                JUNCTION  -nan(ind)     0.00  5026.36     0  00:00        0.00
  GV-1C-8              JUNCTION  -nan(ind)     0.00  5046.97     0  00:00        0.00
  GV-1F                JUNCTION  -nan(ind)     0.00  5094.40     0  00:00        0.00
  GV-1G                JUNCTION  -nan(ind)     0.00  5019.79     0  00:00        0.00
  GV-200               JUNCTION  -nan(ind)     0.00  5028.90     0  00:00        0.00
  GV-20C               JUNCTION  -nan(ind)     0.00  5038.70     0  00:00        0.00
  GV-210               JUNCTION  -nan(ind)     0.00  5037.40     0  00:00        0.00
  GV-21C               JUNCTION  -nan(ind)     0.00  5042.44     0  00:00        0.00
  GV-220               JUNCTION  -nan(ind)     0.00  5061.60     0  00:00        0.00
  GV-22C               JUNCTION  -nan(ind)     0.00  5043.35     0  00:00        0.00
  GV-23C               JUNCTION  -nan(ind)     0.00  5044.35     0  00:00        0.00
  GV-24C               JUNCTION  -nan(ind)     0.00  5046.49     0  00:00        0.00
  GV-2C                JUNCTION  -nan(ind)     0.00  5022.34     0  00:00        0.00
  GV-2C-8              JUNCTION  -nan(ind)     0.00  5045.57     0  00:00        0.00
  GV-2F                JUNCTION  -nan(ind)     0.00  5094.02     0  00:00        0.00
  GV-2G                JUNCTION  -nan(ind)     0.00  5019.43     0  00:00        0.00
  GV-3C                JUNCTION  -nan(ind)     0.00  5021.75     0  00:00        0.00
  GV-3C-8              JUNCTION  -nan(ind)     0.00  5042.69     0  00:00        0.00
  GV-3F                JUNCTION  -nan(ind)     0.00  5090.95     0  00:00        0.00
  GV-3G                JUNCTION  -nan(ind)     0.00  5017.22     0  00:00        0.00
  GV-4C                JUNCTION  -nan(ind)     0.00  5020.81     0  00:00        0.00
  GV-4C-8              JUNCTION  -nan(ind)     0.00  5042.08     0  00:00        0.00
  GV-4F                JUNCTION  -nan(ind)     0.00  5089.26     0  00:00        0.00
  GV-4G                JUNCTION  -nan(ind)     0.00  5014.66     0  00:00        0.00
  GV-5C-8              JUNCTION  -nan(ind)     0.00  5041.22     0  00:00        0.00
  GV-5F                JUNCTION  -nan(ind)     0.00  5084.36     0  00:00        0.00
  GV-5G                JUNCTION  -nan(ind)     0.00  5012.81     0  00:00        0.00
  GV-6C                JUNCTION  -nan(ind)     0.00  5023.95     0  00:00        0.00
  GV-6C-8              JUNCTION  -nan(ind)     0.00  5040.16     0  00:00        0.00
  GV-6F                JUNCTION  -nan(ind)     0.00  5080.26     0  00:00        0.00
  GV-6G                JUNCTION  -nan(ind)     0.00  5011.96     0  00:00        0.00
  GV-7C                JUNCTION  -nan(ind)     0.00  5024.18     0  00:00        0.00
  GV-7F                JUNCTION  -nan(ind)     0.00  5075.57     0  00:00        0.00
  GV-7G                JUNCTION  -nan(ind)     0.00  5011.34     0  00:00        0.00
  GV-8C                JUNCTION  -nan(ind)     0.00  5024.90     0  00:00        0.00
  GV-8F                JUNCTION  -nan(ind)     0.00  5071.53     0  00:00        0.00
  GV-8G                JUNCTION  -nan(ind)     0.00  5010.94     0  00:00        0.00
  GV-9C                JUNCTION  -nan(ind)     0.00  5025.58     0  00:00        0.00
  GV-9F                JUNCTION  -nan(ind)     0.00  5068.81     0  00:00        0.00
  GV-9G                JUNCTION  -nan(ind)     0.00  5010.52     0  00:00        0.00
  GV1-01               JUNCTION  -nan(ind)     0.00  5095.41     0  00:00        0.00
  GV1-02               JUNCTION  -nan(ind)     0.00  5100.52     0  00:00        0.00
  GV1-03               JUNCTION  -nan(ind)     0.00  5105.67     0  00:00        0.00
  GV1-04               JUNCTION  -nan(ind)     0.00  5116.50     0  00:00        0.00
  GV1-04A              JUNCTION  -nan(ind)     0.00  5122.53     0  00:00        0.00
  GV1-05               JUNCTION  -nan(ind)     0.00  5106.62     0  00:00        0.00
  GV1-06               JUNCTION  -nan(ind)     0.00  5116.90     0  00:00        0.00
  GV2-01               JUNCTION  -nan(ind)     0.00  5061.76     0  00:00        0.00
  GV2-02               JUNCTION  -nan(ind)     0.00  5073.15     0  00:00        0.00
  GV2-03               JUNCTION  -nan(ind)     0.00  5079.93     0  00:00        0.00
  GV2-04               JUNCTION  -nan(ind)     0.00  5104.03     0  00:00        0.00
  GV2-05               JUNCTION  -nan(ind)     0.00  5119.24     0  00:00        0.00
  GV2-06               JUNCTION  -nan(ind)     0.00  5128.13     0  00:00        0.00
  GV2-07               JUNCTION  -nan(ind)     0.00  5090.41     0  00:00        0.00
  GV2-08               JUNCTION  -nan(ind)     0.00  5102.37     0  00:00        0.00
  GV2-09               JUNCTION  -nan(ind)     0.00  5127.40     0  00:00        0.00
  GV2-10               JUNCTION  -nan(ind)     0.00  5138.01     0  00:00        0.00
  GV2-11               JUNCTION  -nan(ind)     0.00  5146.38     0  00:00        0.00
  GV2-13               JUNCTION  -nan(ind)     0.00  5090.00     0  00:00        0.00
  GV2-14               JUNCTION  -nan(ind)     0.00  5098.22     0  00:00        0.00
  GV2-15               JUNCTION  -nan(ind)     0.00  5101.68     0  00:00        0.00
  GV2-16               JUNCTION  -nan(ind)     0.00  5103.00     0  00:00        0.00
  GV2-17               JUNCTION  -nan(ind)     0.00  5104.94     0  00:00        0.00
  GV2-18               JUNCTION  -nan(ind)     0.00  5110.71     0  00:00        0.00
  GV2-19               JUNCTION  -nan(ind)     0.00  5134.84     0  00:00        0.00
  GV2-20               JUNCTION  -nan(ind)     0.00  5130.46     0  00:00        0.00
  GV2-21               JUNCTION  -nan(ind)     0.00  5142.94     0  00:00        0.00
  GV2-22               JUNCTION  -nan(ind)     0.00  5153.21     0  00:00        0.00
  GV2-23               JUNCTION  -nan(ind)     0.00  5177.41     0  00:00        0.00
  GV2-24               JUNCTION  -nan(ind)     0.00  5122.73     0  00:00        0.00
  GV2-25               JUNCTION  -nan(ind)     0.00  5144.13     0  00:00        0.00
  GV2-26               JUNCTION  -nan(ind)     0.00  5170.63     0  00:00        0.00
  GV2-27               JUNCTION  -nan(ind)     0.00  5103.36     0  00:00        0.00
  GV2-28               JUNCTION  -nan(ind)     0.00  5104.99     0  00:00        0.00
  GV2-29               JUNCTION  -nan(ind)     0.00  5124.34     0  00:00        0.00
  GV2-30               JUNCTION  -nan(ind)     0.00  5155.56     0  00:00        0.00
  GV2-31               JUNCTION  -nan(ind)     0.00  5145.18     0  00:00        0.00
  GV2-32               JUNCTION  -nan(ind)     0.00  5174.98     0  00:00        0.00
  GV2-33               JUNCTION  -nan(ind)     0.00  5190.17     0  00:00        0.00
  GV2-34               JUNCTION  -nan(ind)     0.00  5206.50     0  00:00        0.00
  GV2-35               JUNCTION  -nan(ind)     0.00  5209.17     0  00:00        0.00
  GV2-36               JUNCTION  -nan(ind)     0.00  5211.36     0  00:00        0.00
  GV2-37               JUNCTION  -nan(ind)     0.00  5223.37     0  00:00        0.00
  HWY52-001            JUNCTION  -nan(ind)     0.00  4942.97     0  00:00        0.00
  HWY52-002            JUNCTION  -nan(ind)     0.00  4949.86     0  00:00        0.00
  HWY52-003            JUNCTION  -nan(ind)     0.00  4958.58     0  00:00        0.00
  HWY52-004            JUNCTION  -nan(ind)     0.00  4968.23     0  00:00        0.00
  HWY52-005            JUNCTION  -nan(ind)     0.00  4971.62     0  00:00        0.00
  HWY52-006            JUNCTION  -nan(ind)     0.00  4973.75     0  00:00        0.00
  HWY52-007            JUNCTION  -nan(ind)     0.00  4983.71     0  00:00        0.00
  HWY52-008            JUNCTION  -nan(ind)     0.00  4987.46     0  00:00        0.00
  HWY52-009            JUNCTION  -nan(ind)     0.00  4992.40     0  00:00        0.00
  HWY52-AM-1           JUNCTION  -nan(ind)     0.00  4995.07     0  00:00        0.00
  HWY52-AM-2           JUNCTION  -nan(ind)     0.00  4997.57     0  00:00        0.00
  HWY52-AM-3           JUNCTION  -nan(ind)     0.00  5000.17     0  00:00        0.00
  IN-020               JUNCTION  -nan(ind)     0.00  5051.63     0  00:00        0.00
  IN-021               JUNCTION  -nan(ind)     0.00  5062.22     0  00:00        0.00
  IN-022               JUNCTION  -nan(ind)     0.00  5087.62     0  00:00        0.00
  IN-023               JUNCTION  -nan(ind)     0.00  5101.84     0  00:00        0.00
  IN-024               JUNCTION  -nan(ind)     0.00  5112.03     0  00:00        0.00
  IN-025               JUNCTION  -nan(ind)     0.00  5129.67     0  00:00        0.00
  IN-026               JUNCTION  -nan(ind)     0.00  5148.19     0  00:00        0.00
  IN-027               JUNCTION  -nan(ind)     0.00  5154.05     0  00:00        0.00
  IN-AM-1              JUNCTION  -nan(ind)     0.00  5004.27     0  00:00        0.00
  IN-AM-10             JUNCTION  -nan(ind)     0.00  5023.08     0  00:00        0.00
  IN-AM-11             JUNCTION  -nan(ind)     0.00  5024.08     0  00:00        0.00
  IN-AM-12             JUNCTION  -nan(ind)     0.00  5025.04     0  00:00        0.00
  IN-AM-13             JUNCTION  -nan(ind)     0.00  5026.08     0  00:00        0.00
  IN-AM-14             JUNCTION  -nan(ind)     0.00  5027.10     0  00:00        0.00
  IN-AM-15             JUNCTION  -nan(ind)     0.00  5028.00     0  00:00        0.00
  IN-AM-16             JUNCTION  -nan(ind)     0.00  5029.00     0  00:00        0.00
  IN-AM-17             JUNCTION  -nan(ind)     0.00  5030.06     0  00:00        0.00
  IN-AM-18             JUNCTION  -nan(ind)     0.00  5031.06     0  00:00        0.00
  IN-AM-19             JUNCTION  -nan(ind)     0.00  5033.06     0  00:00        0.00
  IN-AM-2              JUNCTION  -nan(ind)     0.00  5006.27     0  00:00        0.00
  IN-AM-20             JUNCTION  -nan(ind)     0.00  5034.04     0  00:00        0.00
  IN-AM-21             JUNCTION  -nan(ind)     0.00  5035.04     0  00:00        0.00
  IN-AM-22             JUNCTION  -nan(ind)     0.00  5036.04     0  00:00        0.00
  IN-AM-23             JUNCTION  -nan(ind)     0.00  5037.02     0  00:00        0.00
  IN-AM-24             JUNCTION  -nan(ind)     0.00  5038.00     0  00:00        0.00
  IN-AM-25             JUNCTION  -nan(ind)     0.00  5038.96     0  00:00        0.00
  IN-AM-26             JUNCTION  -nan(ind)     0.00  5039.98     0  00:00        0.00
  IN-AM-27             JUNCTION  -nan(ind)     0.00  5040.98     0  00:00        0.00
  IN-AM-28             JUNCTION  -nan(ind)     0.00  5041.98     0  00:00        0.00
  IN-AM-29             JUNCTION  -nan(ind)     0.00  5042.96     0  00:00        0.00
  IN-AM-3              JUNCTION  -nan(ind)     0.00  5008.32     0  00:00        0.00
  IN-AM-30             JUNCTION  -nan(ind)     0.00  5043.96     0  00:00        0.00
  IN-AM-31             JUNCTION  -nan(ind)     0.00  5044.96     0  00:00        0.00
  IN-AM-4              JUNCTION  -nan(ind)     0.00  5011.04     0  00:00        0.00
  IN-AM-5              JUNCTION  -nan(ind)     0.00  5012.96     0  00:00        0.00
  IN-AM-6              JUNCTION  -nan(ind)     0.00  5015.00     0  00:00        0.00
  IN-AM-7              JUNCTION  -nan(ind)     0.00  5017.00     0  00:00        0.00
  IN-AM-8              JUNCTION  -nan(ind)     0.00  5019.00     0  00:00        0.00
  IN-AM-9              JUNCTION  -nan(ind)     0.00  5022.04     0  00:00        0.00
  IN1-001              JUNCTION  -nan(ind)     0.00  5036.02     0  00:00        0.00
  IN1-002              JUNCTION  -nan(ind)     0.00  5042.58     0  00:00        0.00
  IN1-003              JUNCTION  -nan(ind)     0.00  5047.30     0  00:00        0.00
  IN1-004              JUNCTION  -nan(ind)     0.00  5055.23     0  00:00        0.00
  IN1-005              JUNCTION  -nan(ind)     0.00  5064.15     0  00:00        0.00
  IN1-006              JUNCTION  -nan(ind)     0.00  5074.42     0  00:00        0.00
  IN1-007              JUNCTION  -nan(ind)     0.00  5089.57     0  00:00        0.00
  IN1-008              JUNCTION  -nan(ind)     0.00  5098.83     0  00:00        0.00
  IN1-009              JUNCTION  -nan(ind)     0.00  5108.06     0  00:00        0.00
  IN1-010              JUNCTION  -nan(ind)     0.00  5118.23     0  00:00        0.00
  IN1-011              JUNCTION  -nan(ind)     0.00  5128.45     0  00:00        0.00
  IN1-012              JUNCTION  -nan(ind)     0.00  5142.22     0  00:00        0.00
  IN1-013              JUNCTION  -nan(ind)     0.00  5155.37     0  00:00        0.00
  IN1-014              JUNCTION  -nan(ind)     0.00  5167.69     0  00:00        0.00
  IN1-015              JUNCTION  -nan(ind)     0.00  5178.37     0  00:00        0.00
  IN1-016              JUNCTION  -nan(ind)     0.00  5194.25     0  00:00        0.00
  IN1-017              JUNCTION  -nan(ind)     0.00  5215.84     0  00:00        0.00
  IN1-020              JUNCTION  -nan(ind)     0.00  5076.46     0  00:00        0.00
  IN1-021              JUNCTION  -nan(ind)     0.00  5100.31     0  00:00        0.00
  IN1-022              JUNCTION  -nan(ind)     0.00  5107.37     0  00:00        0.00
  IN1-AM-01            JUNCTION  -nan(ind)     0.00  5032.99     0  00:00        0.00
  IN2-001              JUNCTION  -nan(ind)     0.00  5068.05     0  00:00        0.00
  IN2-002              JUNCTION  -nan(ind)     0.00  5075.52     0  00:00        0.00
  IN2-003              JUNCTION  -nan(ind)     0.00  5084.46     0  00:00        0.00
  IN2-004              JUNCTION  -nan(ind)     0.00  5094.76     0  00:00        0.00
  IN2-005              JUNCTION  -nan(ind)     0.00  5105.66     0  00:00        0.00
  IN2-006              JUNCTION  -nan(ind)     0.00  5114.04     0  00:00        0.00
  IN2-007              JUNCTION  -nan(ind)     0.00  5119.02     0  00:00        0.00
  IN2-008              JUNCTION  -nan(ind)     0.00  5125.49     0  00:00        0.00
  IN2-009              JUNCTION  -nan(ind)     0.00  5139.50     0  00:00        0.00
  IN2-010              JUNCTION  -nan(ind)     0.00  5148.37     0  00:00        0.00
  IN2-011              JUNCTION  -nan(ind)     0.00  5119.52     0  00:00        0.00
  IN2-012              JUNCTION  -nan(ind)     0.00  5127.49     0  00:00        0.00
  IN2-013              JUNCTION  -nan(ind)     0.00  5130.34     0  00:00        0.00
  IN2-014              JUNCTION  -nan(ind)     0.00  5145.04     0  00:00        0.00
  IN2-015              JUNCTION  -nan(ind)     0.00  5177.73     0  00:00        0.00
  IN2-AM-01            JUNCTION  -nan(ind)     0.00  5048.80     0  00:00        0.00
  IN3-001              JUNCTION  -nan(ind)     0.00  5067.07     0  00:00        0.00
  IN3-002              JUNCTION  -nan(ind)     0.00  5085.00     0  00:00        0.00
  IN4-001              JUNCTION  -nan(ind)     0.00  5092.16     0  00:00        0.00
  IN4-002              JUNCTION  -nan(ind)     0.00  5102.45     0  00:00        0.00
  IN4-003              JUNCTION  -nan(ind)     0.00  5125.26     0  00:00        0.00
  IN4-004              JUNCTION  -nan(ind)     0.00  5145.88     0  00:00        0.00
  IN4-005              JUNCTION  -nan(ind)     0.00  5164.34     0  00:00        0.00
  IN5-001              JUNCTION  -nan(ind)     0.00  5172.88     0  00:00        0.00
  IN5-002              JUNCTION  -nan(ind)     0.00  5193.20     0  00:00        0.00
  IN5-003              JUNCTION  -nan(ind)     0.00  5200.44     0  00:00        0.00
  IN5-004              JUNCTION  -nan(ind)     0.00  5203.59     0  00:00        0.00
  IN5-005              JUNCTION  -nan(ind)     0.00  5207.09     0  00:00        0.00
  IN5-006              JUNCTION  -nan(ind)     0.00  5209.30     0  00:00        0.00
  IN6-001              JUNCTION  -nan(ind)     0.00  5157.61     0  00:00        0.00
  IN6-002              JUNCTION  -nan(ind)     0.00  5163.11     0  00:00        0.00
  IN6-003              JUNCTION  -nan(ind)     0.00  5166.55     0  00:00        0.00
  IN6-004              JUNCTION  -nan(ind)     0.00  5171.10     0  00:00        0.00
  IN6-005              JUNCTION  -nan(ind)     0.00  5174.21     0  00:00        0.00
  IN6-006              JUNCTION  -nan(ind)     0.00  5183.77     0  00:00        0.00
  IN6-007              JUNCTION  -nan(ind)     0.00  5196.67     0  00:00        0.00
  IN6-008              JUNCTION  -nan(ind)     0.00  5225.60     0  00:00        0.00
  IN6-009              JUNCTION  -nan(ind)     0.00  5208.12     0  00:00        0.00
  IN6-013              JUNCTION  -nan(ind)     0.00  5213.11     0  00:00        0.00
  IN6-014              JUNCTION  -nan(ind)     0.00  5228.12     0  00:00        0.00
  IN6-015              JUNCTION  -nan(ind)     0.00  5248.12     0  00:00        0.00
  JR-001               JUNCTION  -nan(ind)     0.00  5004.00     0  00:00        0.00
  JR-002               JUNCTION  -nan(ind)     0.00  5021.00     0  00:00        0.00
  JR-003               JUNCTION  -nan(ind)     0.00  5025.00     0  00:00        0.00
  JR-004               JUNCTION  -nan(ind)     0.00  5032.00     0  00:00        0.00
  JR-005               JUNCTION  -nan(ind)     0.00  5051.00     0  00:00        0.00
  JR-006               JUNCTION  -nan(ind)     0.00  5066.00     0  00:00        0.00
  JR-007               JUNCTION  -nan(ind)     0.00  5105.00     0  00:00        0.00
  KF-010               JUNCTION  -nan(ind)     0.00  4988.03     0  00:00        0.00
  KF-011               JUNCTION  -nan(ind)     0.00  4987.57     0  00:00        0.00
  KF-012               JUNCTION  -nan(ind)     0.00  4987.31     0  00:00        0.00
  KF-020               JUNCTION  -nan(ind)     0.00  4986.54     0  00:00        0.00
  KF-023               JUNCTION  -nan(ind)     0.00  4985.94     0  00:00        0.00
  KF-026               JUNCTION  -nan(ind)     0.00  4985.36     0  00:00        0.00
  KF-028               JUNCTION  -nan(ind)     0.00  4984.34     0  00:00        0.00
  KF-029               JUNCTION  -nan(ind)     0.00  4983.69     0  00:00        0.00
  KF-030               JUNCTION  -nan(ind)     0.00  4983.32     0  00:00        0.00
  KF-031               JUNCTION  -nan(ind)     0.00  4982.93     0  00:00        0.00
  KF-048               JUNCTION  -nan(ind)     0.00  4983.32     0  00:00        0.00
  KF-057               JUNCTION  -nan(ind)     0.00  4982.21     0  00:00        0.00
  KF-060               JUNCTION  -nan(ind)     0.00  4981.37     0  00:00        0.00
  KF-061               JUNCTION  -nan(ind)     0.00  4980.93     0  00:00        0.00
  KF-062               JUNCTION  -nan(ind)     0.00  4980.34     0  00:00        0.00
  KF-063               JUNCTION  -nan(ind)     0.00  4979.80     0  00:00        0.00
  KF-064               JUNCTION  -nan(ind)     0.00  4979.48     0  00:00        0.00
  KF-079               JUNCTION  -nan(ind)     0.00  4979.12     0  00:00        0.00
  KF-100               JUNCTION  -nan(ind)     0.00  4978.84     0  00:00        0.00
  KF-101               JUNCTION  -nan(ind)     0.00  4978.48     0  00:00        0.00
  KF-102               JUNCTION  -nan(ind)     0.00  4978.35     0  00:00        0.00
  KF-103               JUNCTION  -nan(ind)     0.00  4978.03     0  00:00        0.00
  KF-104               JUNCTION  -nan(ind)     0.00  4974.32     0  00:00        0.00
  KF-110               JUNCTION  -nan(ind)     0.00  4984.81     0  00:00        0.00
  KF-LS                JUNCTION  -nan(ind)     0.00  4979.00     0  00:00        0.00
  LWP-001              JUNCTION  -nan(ind)     0.00  5084.46     0  00:00        0.00
  LWP-002              JUNCTION  -nan(ind)     0.00  5083.50     0  00:00        0.00
  MH76                 JUNCTION  -nan(ind)     0.00  4928.74     0  00:00        0.00
  MH_73                JUNCTION  -nan(ind)     0.00  4930.39     0  00:00        0.00
  MS-001               JUNCTION  -nan(ind)     0.00  5084.50     0  00:00        0.00
  MS-002               JUNCTION  -nan(ind)     0.00  5100.00     0  00:00        0.00
  MS-003               JUNCTION  -nan(ind)     0.00  5128.00     0  00:00        0.00
  MS-004               JUNCTION  -nan(ind)     0.00  5141.00     0  00:00        0.00
  MS-005               JUNCTION  -nan(ind)     0.00  5159.00     0  00:00        0.00
  MS-006               JUNCTION  -nan(ind)     0.00  5169.36     0  00:00        0.00
  MS-007               JUNCTION  -nan(ind)     0.00  5189.66     0  00:00        0.00
  MS-008               JUNCTION  -nan(ind)     0.00  5107.94     0  00:00        0.00
  MS-009               JUNCTION  -nan(ind)     0.00  5119.42     0  00:00        0.00
  MS-010               JUNCTION  -nan(ind)     0.00  5085.53     0  00:00        0.00
  MS-011               JUNCTION  -nan(ind)     0.00  5097.65     0  00:00        0.00
  MS-012               JUNCTION  -nan(ind)     0.00  5147.14     0  00:00        0.00
  MSF-010              JUNCTION  -nan(ind)     0.00  5126.05     0  00:00        0.00
  MSF-054              JUNCTION  -nan(ind)     0.00  5116.52     0  00:00        0.00
  MSF-055              JUNCTION  -nan(ind)     0.00  5115.54     0  00:00        0.00
  MSF-056              JUNCTION  -nan(ind)     0.00  5124.80     0  00:00        0.00
  MSF-057              JUNCTION  -nan(ind)     0.00  5122.80     0  00:00        0.00
  MSF-058              JUNCTION  -nan(ind)     0.00  5120.84     0  00:00        0.00
  MSF-059              JUNCTION  -nan(ind)     0.00  5119.04     0  00:00        0.00
  NE-001               JUNCTION  -nan(ind)     0.00  4957.72     0  00:00        0.00
  NR-001               JUNCTION  -nan(ind)     0.00  5029.00     0  00:00        0.00
  NR-002               JUNCTION  -nan(ind)     0.00  5052.68     0  00:00        0.00
  NR-003               JUNCTION  -nan(ind)     0.00  5082.77     0  00:00        0.00
  NR-004               JUNCTION  -nan(ind)     0.00  5056.41     0  00:00        0.00
  NR-03A               JUNCTION  -nan(ind)     0.00  5089.73     0  00:00        0.00
  NR-046               JUNCTION  -nan(ind)     0.00  4997.50     0  00:00        0.00
  NR-047               JUNCTION  -nan(ind)     0.00  4996.80     0  00:00        0.00
  NR-048               JUNCTION  -nan(ind)     0.00  4995.90     0  00:00        0.00
  NR-049               JUNCTION  -nan(ind)     0.00  4995.00     0  00:00        0.00
  NR-46A               JUNCTION  -nan(ind)     0.00  5029.81     0  00:00        0.00
  NR-46B               JUNCTION  -nan(ind)     0.00  5075.51     0  00:00        0.00
  NWRF                 JUNCTION  -nan(ind)     0.00  4937.88     0  00:00        0.00
  OG-001               JUNCTION  -nan(ind)     0.00  5147.84     0  00:00        0.00
  OG-002               JUNCTION  -nan(ind)     0.00  5143.64     0  00:00        0.00
  OG-003               JUNCTION  -nan(ind)     0.00  5143.00     0  00:00        0.00
  OG-004               JUNCTION  -nan(ind)     0.00  5137.51     0  00:00        0.00
  OG-005               JUNCTION  -nan(ind)     0.00  5136.42     0  00:00        0.00
  OG-017               JUNCTION  -nan(ind)     0.00  5135.76     0  00:00        0.00
  OG-018               JUNCTION  -nan(ind)     0.00  5134.22     0  00:00        0.00
  OG-025               JUNCTION  -nan(ind)     0.00  5132.91     0  00:00        0.00
  OG-063               JUNCTION  -nan(ind)     0.00  5138.50     0  00:00        0.00
  OG-064               JUNCTION  -nan(ind)     0.00  5138.13     0  00:00        0.00
  OG-065               JUNCTION  -nan(ind)     0.00  5137.81     0  00:00        0.00
  OG-066               JUNCTION  -nan(ind)     0.00  5137.68     0  00:00        0.00
  OG-067               JUNCTION  -nan(ind)     0.00  5137.29     0  00:00        0.00
  OG-068               JUNCTION  -nan(ind)     0.00  5136.92     0  00:00        0.00
  OG-069               JUNCTION  -nan(ind)     0.00  5135.78     0  00:00        0.00
  OG-070               JUNCTION  -nan(ind)     0.00  5135.48     0  00:00        0.00
  OG-071               JUNCTION  -nan(ind)     0.00  5134.62     0  00:00        0.00
  OG-072               JUNCTION  -nan(ind)     0.00  5134.42     0  00:00        0.00
  OG-073               JUNCTION  -nan(ind)     0.00  5133.66     0  00:00        0.00
  OG-074               JUNCTION  -nan(ind)     0.00  5132.50     0  00:00        0.00
  OG-075               JUNCTION  -nan(ind)     0.00  5131.60     0  00:00        0.00
  OG-076               JUNCTION  -nan(ind)     0.00  5130.35     0  00:00        0.00
  OG-077               JUNCTION  -nan(ind)     0.00  5128.49     0  00:00        0.00
  OG-090               JUNCTION  -nan(ind)     0.00  5141.27     0  00:00        0.00
  OG-091               JUNCTION  -nan(ind)     0.00  5143.27     0  00:00        0.00
  OG-092               JUNCTION  -nan(ind)     0.00  5145.42     0  00:00        0.00
  OG-093               JUNCTION  -nan(ind)     0.00  5147.61     0  00:00        0.00
  OG-094               JUNCTION  -nan(ind)     0.00  5152.53     0  00:00        0.00
  OG-095               JUNCTION  -nan(ind)     0.00  5157.96     0  00:00        0.00
  OG-096               JUNCTION  -nan(ind)     0.00  5160.45     0  00:00        0.00
  OG-100               JUNCTION  -nan(ind)     0.00  5173.18     0  00:00        0.00
  OG-101               JUNCTION  -nan(ind)     0.00  5179.07     0  00:00        0.00
  OG-102               JUNCTION  -nan(ind)     0.00  5188.20     0  00:00        0.00
  OG-103               JUNCTION  -nan(ind)     0.00  5197.37     0  00:00        0.00
  OG-104               JUNCTION  -nan(ind)     0.00  5206.04     0  00:00        0.00
  OG-105               JUNCTION  -nan(ind)     0.00  5210.66     0  00:00        0.00
  OS-1                 JUNCTION  -nan(ind)     0.00  5036.60     0  00:00        0.00
  OS-2                 JUNCTION  -nan(ind)     0.00  5039.11     0  00:00        0.00
  OS-3                 JUNCTION  -nan(ind)     0.00  5041.69     0  00:00        0.00
  OS-4                 JUNCTION  -nan(ind)     0.00  5043.46     0  00:00        0.00
  OS-5                 JUNCTION  -nan(ind)     0.00  5044.34     0  00:00        0.00
  OS-6                 JUNCTION  -nan(ind)     0.00  5045.49     0  00:00        0.00
  OT-018               JUNCTION  -nan(ind)     0.00  5020.40     0  00:00        0.00
  OT-023               JUNCTION  -nan(ind)     0.00  5014.20     0  00:00        0.00
  OT-028               JUNCTION  -nan(ind)     0.00  5013.53     0  00:00        0.00
  OT-033               JUNCTION  -nan(ind)     0.00  5011.81     0  00:00        0.00
  OT-048               JUNCTION  -nan(ind)     0.00  5010.00     0  00:00        0.00
  OT-049               JUNCTION  -nan(ind)     0.00  5008.37     0  00:00        0.00
  OT-050               JUNCTION  -nan(ind)     0.00  5006.34     0  00:00        0.00
  OT-061               JUNCTION  -nan(ind)     0.00  5016.50     0  00:00        0.00
  OT-063               JUNCTION  -nan(ind)     0.00  5015.13     0  00:00        0.00
  OT-066               JUNCTION  -nan(ind)     0.00  5013.93     0  00:00        0.00
  OT-070               JUNCTION  -nan(ind)     0.00  5013.23     0  00:00        0.00
  OT-074               JUNCTION  -nan(ind)     0.00  5010.20     0  00:00        0.00
  OT-078               JUNCTION  -nan(ind)     0.00  5006.13     0  00:00        0.00
  OT-079               JUNCTION  -nan(ind)     0.00  5004.72     0  00:00        0.00
  OT-080               JUNCTION  -nan(ind)     0.00  5003.00     0  00:00        0.00
  OT-083               JUNCTION  -nan(ind)     0.00  5001.49     0  00:00        0.00
  OT-084               JUNCTION  -nan(ind)     0.00  5001.04     0  00:00        0.00
  OT-085               JUNCTION  -nan(ind)     0.00  5000.59     0  00:00        0.00
  OT-086               JUNCTION  -nan(ind)     0.00  4998.24     0  00:00        0.00
  OT-087               JUNCTION  -nan(ind)     0.00  5032.45     0  00:00        0.00
  OT-088               JUNCTION  -nan(ind)     0.00  5028.45     0  00:00        0.00
  OT-089               JUNCTION  -nan(ind)     0.00  5027.32     0  00:00        0.00
  OT-090               JUNCTION  -nan(ind)     0.00  5025.95     0  00:00        0.00
  OT-091               JUNCTION  -nan(ind)     0.00  5019.45     0  00:00        0.00
  OT-092               JUNCTION  -nan(ind)     0.00  5013.39     0  00:00        0.00
  OT-093               JUNCTION  -nan(ind)     0.00  5012.21     0  00:00        0.00
  OT-094               JUNCTION  -nan(ind)     0.00  5011.10     0  00:00        0.00
  OT-096               JUNCTION  -nan(ind)     0.00  5005.15     0  00:00        0.00
  OT-097               JUNCTION  -nan(ind)     0.00  5004.20     0  00:00        0.00
  OT-098               JUNCTION  -nan(ind)     0.00  5003.50     0  00:00        0.00
  OT-099               JUNCTION  -nan(ind)     0.00  5002.80     0  00:00        0.00
  OT-100               JUNCTION  -nan(ind)     0.00  5002.40     0  00:00        0.00
  OT-101               JUNCTION  -nan(ind)     0.00  5001.50     0  00:00        0.00
  OT-102               JUNCTION  -nan(ind)     0.00  5000.50     0  00:00        0.00
  OT-103               JUNCTION  -nan(ind)     0.00  4999.40     0  00:00        0.00
  OT-104               JUNCTION  -nan(ind)     0.00  4998.60     0  00:00        0.00
  SAMH-1               JUNCTION  -nan(ind)     0.00  5009.23     0  00:00        0.00
  SAMH-10              JUNCTION  -nan(ind)     0.00  5061.02     0  00:00        0.00
  SAMH-100             JUNCTION  -nan(ind)     0.00  5134.88     0  00:00        0.00
  SAMH-101             JUNCTION  -nan(ind)     0.00  5164.06     0  00:00        0.00
  SAMH-102             JUNCTION  -nan(ind)     0.00  5188.72     0  00:00        0.00
  SAMH-103             JUNCTION  -nan(ind)     0.00  5195.46     0  00:00        0.00
  SAMH-104             JUNCTION  -nan(ind)     0.00  5202.21     0  00:00        0.00
  SAMH-105             JUNCTION  -nan(ind)     0.00  5148.91     0  00:00        0.00
  SAMH-106             JUNCTION  -nan(ind)     0.00  5174.23     0  00:00        0.00
  SAMH-107             JUNCTION  -nan(ind)     0.00  5196.44     0  00:00        0.00
  SAMH-11              JUNCTION  -nan(ind)     0.00  5070.92     0  00:00        0.00
  SAMH-110             JUNCTION  -nan(ind)     0.00  5129.24     0  00:00        0.00
  SAMH-111             JUNCTION  -nan(ind)     0.00  5160.78     0  00:00        0.00
  SAMH-112             JUNCTION  -nan(ind)     0.00  5179.89     0  00:00        0.00
  SAMH-113             JUNCTION  -nan(ind)     0.00  5188.38     0  00:00        0.00
  SAMH-12              JUNCTION  -nan(ind)     0.00  5080.51     0  00:00        0.00
  SAMH-13              JUNCTION  -nan(ind)     0.00  5093.89     0  00:00        0.00
  SAMH-14              JUNCTION  -nan(ind)     0.00  5096.14     0  00:00        0.00
  SAMH-15              JUNCTION  -nan(ind)     0.00  5098.45     0  00:00        0.00
  SAMH-16              JUNCTION  -nan(ind)     0.00  5100.77     0  00:00        0.00
  SAMH-17              JUNCTION  -nan(ind)     0.00  5102.48     0  00:00        0.00
  SAMH-18              JUNCTION  -nan(ind)     0.00  5104.16     0  00:00        0.00
  SAMH-19              JUNCTION  -nan(ind)     0.00  5106.06     0  00:00        0.00
  SAMH-1G              JUNCTION  -nan(ind)     0.00  5006.34     0  00:00        0.00
  SAMH-2               JUNCTION  -nan(ind)     0.00  5021.43     0  00:00        0.00
  SAMH-20              JUNCTION  -nan(ind)     0.00  5107.84     0  00:00        0.00
  SAMH-21              JUNCTION  -nan(ind)     0.00  5109.89     0  00:00        0.00
  SAMH-22              JUNCTION  -nan(ind)     0.00  5111.49     0  00:00        0.00
  SAMH-23              JUNCTION  -nan(ind)     0.00  5112.99     0  00:00        0.00
  SAMH-24              JUNCTION  -nan(ind)     0.00  5115.67     0  00:00        0.00
  SAMH-25              JUNCTION  -nan(ind)     0.00  5120.13     0  00:00        0.00
  SAMH-26              JUNCTION  -nan(ind)     0.00  5124.26     0  00:00        0.00
  SAMH-27              JUNCTION  -nan(ind)     0.00  5126.04     0  00:00        0.00
  SAMH-28              JUNCTION  -nan(ind)     0.00  5127.06     0  00:00        0.00
  SAMH-3               JUNCTION  -nan(ind)     0.00  5031.80     0  00:00        0.00
  SAMH-4               JUNCTION  -nan(ind)     0.00  5033.82     0  00:00        0.00
  SAMH-5               JUNCTION  -nan(ind)     0.00  5036.00     0  00:00        0.00
  SAMH-6               JUNCTION  -nan(ind)     0.00  5039.20     0  00:00        0.00
  SAMH-8               JUNCTION  -nan(ind)     0.00  5049.41     0  00:00        0.00
  SAMH-9               JUNCTION  -nan(ind)     0.00  5052.70     0  00:00        0.00
  SW-040               JUNCTION  -nan(ind)     0.00  5077.55     0  00:00        0.00
  SW-041               JUNCTION  -nan(ind)     0.00  5073.21     0  00:00        0.00
  SW-042               JUNCTION  -nan(ind)     0.00  5068.91     0  00:00        0.00
  SW-043               JUNCTION  -nan(ind)     0.00  5067.34     0  00:00        0.00
  SW-044               JUNCTION  -nan(ind)     0.00  5065.58     0  00:00        0.00
  SW-045               JUNCTION  -nan(ind)     0.00  5064.84     0  00:00        0.00
  SW-046               JUNCTION  -nan(ind)     0.00  5063.86     0  00:00        0.00
  SW-047               JUNCTION  -nan(ind)     0.00  5062.10     0  00:00        0.00
  SW-048               JUNCTION  -nan(ind)     0.00  5060.24     0  00:00        0.00
  SW-049               JUNCTION  -nan(ind)     0.00  5059.16     0  00:00        0.00
  SW-055               JUNCTION  -nan(ind)     0.00  5036.09     0  00:00        0.00
  SW-056               JUNCTION  -nan(ind)     0.00  5035.00     0  00:00        0.00
  TG-001               JUNCTION  -nan(ind)     0.00  4959.07     0  00:00        0.00
  TG-002               JUNCTION  -nan(ind)     0.00  4968.80     0  00:00        0.00
  TG-003               JUNCTION  -nan(ind)     0.00  5015.71     0  00:00        0.00
  TG-004               JUNCTION  -nan(ind)     0.00  5036.92     0  00:00        0.00
  TG-005               JUNCTION  -nan(ind)     0.00  4981.31     0  00:00        0.00
  TG-006               JUNCTION  -nan(ind)     0.00  4994.64     0  00:00        0.00
  TG-007               JUNCTION  -nan(ind)     0.00  5008.29     0  00:00        0.00
  TG-008               JUNCTION  -nan(ind)     0.00  5036.44     0  00:00        0.00
  TG-009               JUNCTION  -nan(ind)     0.00  5037.10     0  00:00        0.00
  TG-010               JUNCTION  -nan(ind)     0.00  5038.10     0  00:00        0.00
  TG-011               JUNCTION  -nan(ind)     0.00  5040.43     0  00:00        0.00
  TG-012               JUNCTION  -nan(ind)     0.00  5046.42     0  00:00        0.00
  TG-013               JUNCTION  -nan(ind)     0.00  5048.22     0  00:00        0.00
  TG-014               JUNCTION  -nan(ind)     0.00  5049.63     0  00:00        0.00
  TG-015               JUNCTION  -nan(ind)     0.00  5052.79     0  00:00        0.00
  TG-016               JUNCTION  -nan(ind)     0.00  5057.94     0  00:00        0.00
  TG-017               JUNCTION  -nan(ind)     0.00  5060.36     0  00:00        0.00
  TG-018               JUNCTION  -nan(ind)     0.00  5061.53     0  00:00        0.00
  TG-019               JUNCTION  -nan(ind)     0.00  5063.47     0  00:00        0.00
  TG-020               JUNCTION  -nan(ind)     0.00  5065.26     0  00:00        0.00
  TG-021               JUNCTION  -nan(ind)     0.00  5069.28     0  00:00        0.00
  TG-022               JUNCTION  -nan(ind)     0.00  5072.04     0  00:00        0.00
  TG-023               JUNCTION  -nan(ind)     0.00  5074.78     0  00:00        0.00
  TG-024               JUNCTION  -nan(ind)     0.00  5078.84     0  00:00        0.00
  TG-025               JUNCTION  -nan(ind)     0.00  5082.72     0  00:00        0.00
  TG-026               JUNCTION  -nan(ind)     0.00  5087.51     0  00:00        0.00
  TG-027               JUNCTION  -nan(ind)     0.00  5093.43     0  00:00        0.00
  TG-028               JUNCTION  -nan(ind)     0.00  5102.64     0  00:00        0.00
  TG-029               JUNCTION  -nan(ind)     0.00  5086.11     0  00:00        0.00
  TG-030               JUNCTION  -nan(ind)     0.00  5089.81     0  00:00        0.00
  TG-031               JUNCTION  -nan(ind)     0.00  5099.53     0  00:00        0.00
  TG-032               JUNCTION  -nan(ind)     0.00  5105.83     0  00:00        0.00
  TG-033               JUNCTION  -nan(ind)     0.00  5119.72     0  00:00        0.00
  TG-034               JUNCTION  -nan(ind)     0.00  5055.74     0  00:00        0.00
  TG-035               JUNCTION  -nan(ind)     0.00  5059.03     0  00:00        0.00
  TG-036               JUNCTION  -nan(ind)     0.00  5064.30     0  00:00        0.00
  TG-037               JUNCTION  -nan(ind)     0.00  5069.82     0  00:00        0.00
  TG-038               JUNCTION  -nan(ind)     0.00  5076.72     0  00:00        0.00
  TG-039               JUNCTION  -nan(ind)     0.00  5079.39     0  00:00        0.00
  TG-040               JUNCTION  -nan(ind)     0.00  5081.36     0  00:00        0.00
  TG-041               JUNCTION  -nan(ind)     0.00  5083.23     0  00:00        0.00
  TG-042               JUNCTION  -nan(ind)     0.00  5085.30     0  00:00        0.00
  TG-043               JUNCTION  -nan(ind)     0.00  5088.83     0  00:00        0.00
  VP-01                JUNCTION  -nan(ind)     0.00  5031.51     0  00:00        0.00
  VP-02                JUNCTION  -nan(ind)     0.00  5032.86     0  00:00        0.00
  VP-03                JUNCTION  -nan(ind)     0.00  5043.92     0  00:00        0.00
  VP-04                JUNCTION  -nan(ind)     0.00  5045.41     0  00:00        0.00
  VP-05                JUNCTION  -nan(ind)     0.00  5046.44     0  00:00        0.00
  VP-06                JUNCTION  -nan(ind)     0.00  5051.18     0  00:00        0.00
  VP-07                JUNCTION  -nan(ind)     0.00  5055.89     0  00:00        0.00
  VP-08                JUNCTION  -nan(ind)     0.00  5065.71     0  00:00        0.00
  VP-09                JUNCTION  -nan(ind)     0.00  5073.48     0  00:00        0.00
  VP-10                JUNCTION  -nan(ind)     0.00  5074.74     0  00:00        0.00
  VP-11                JUNCTION  -nan(ind)     0.00  5076.04     0  00:00        0.00
  VP-12                JUNCTION  -nan(ind)     0.00  5076.80     0  00:00        0.00
  VP-13                JUNCTION  -nan(ind)     0.00  5077.12     0  00:00        0.00
  VP-14                JUNCTION  -nan(ind)     0.00  5077.63     0  00:00        0.00
  VP-15                JUNCTION  -nan(ind)     0.00  5079.09     0  00:00        0.00
  VP-16                JUNCTION  -nan(ind)     0.00  5085.49     0  00:00        0.00
  VP-20                JUNCTION  -nan(ind)     0.00  5077.84     0  00:00        0.00
  VP-21                JUNCTION  -nan(ind)     0.00  5080.40     0  00:00        0.00
  VP-23                JUNCTION  -nan(ind)     0.00  5082.50     0  00:00        0.00
  VP-24                JUNCTION  -nan(ind)     0.00  5083.20     0  00:00        0.00
  VP-25                JUNCTION  -nan(ind)     0.00  5084.20     0  00:00        0.00
  VP-26                JUNCTION  -nan(ind)     0.00  5085.10     0  00:00        0.00
  VP-27                JUNCTION  -nan(ind)     0.00  5086.88     0  00:00        0.00
  VP-28                JUNCTION  -nan(ind)     0.00  5092.90     0  00:00        0.00
  VP-29                JUNCTION  -nan(ind)     0.00  5093.80     0  00:00        0.00
  VP1-100              JUNCTION  -nan(ind)     0.00  5094.91     0  00:00        0.00
  VP1-101              JUNCTION  -nan(ind)     0.00  5110.35     0  00:00        0.00
  VP1-102              JUNCTION  -nan(ind)     0.00  5114.41     0  00:00        0.00
  VP1-103              JUNCTION  -nan(ind)     0.00  5104.04     0  00:00        0.00
  VP1-104              JUNCTION  -nan(ind)     0.00  5114.68     0  00:00        0.00
  VP1-105              JUNCTION  -nan(ind)     0.00  5125.74     0  00:00        0.00
  VR-A1A               JUNCTION  -nan(ind)     0.00  5104.06     0  00:00        0.00
  VR-A4                JUNCTION  -nan(ind)     0.00  5105.78     0  00:00        0.00
  VR-A5                JUNCTION  -nan(ind)     0.00  5107.25     0  00:00        0.00
  VR-A6                JUNCTION  -nan(ind)     0.00  5108.75     0  00:00        0.00
  VR-A7                JUNCTION  -nan(ind)     0.00  5114.12     0  00:00        0.00
  VR-A8                JUNCTION  -nan(ind)     0.00  5115.93     0  00:00        0.00
  VR-A9                JUNCTION  -nan(ind)     0.00  5124.43     0  00:00        0.00
  VR-B1                JUNCTION  -nan(ind)     0.00  5121.63     0  00:00        0.00
  VR-B1A               JUNCTION  -nan(ind)     0.00  5122.76     0  00:00        0.00
  VR-B2                JUNCTION  -nan(ind)     0.00  5123.99     0  00:00        0.00
  VR-B3                JUNCTION  -nan(ind)     0.00  5125.65     0  00:00        0.00
  VR-B4                JUNCTION  -nan(ind)     0.00  5133.15     0  00:00        0.00
  VR-B5                JUNCTION  -nan(ind)     0.00  5137.40     0  00:00        0.00
  VR-B6                JUNCTION  -nan(ind)     0.00  5142.16     0  00:00        0.00
  VR-B7                JUNCTION  -nan(ind)     0.00  5143.47     0  00:00        0.00
  VR-B7B               JUNCTION  -nan(ind)     0.00  5159.51     0  00:00        0.00
  VR-C1                JUNCTION  -nan(ind)     0.00  5088.60     0  00:00        0.00
  VR-C10               JUNCTION  -nan(ind)     0.00  5101.04     0  00:00        0.00
  VR-C11               JUNCTION  -nan(ind)     0.00  5104.17     0  00:00        0.00
  VR-C12               JUNCTION  -nan(ind)     0.00  5106.99     0  00:00        0.00
  VR-C13               JUNCTION  -nan(ind)     0.00  5113.33     0  00:00        0.00
  VR-C14               JUNCTION  -nan(ind)     0.00  5122.98     0  00:00        0.00
  VR-C15               JUNCTION  -nan(ind)     0.00  5127.04     0  00:00        0.00
  VR-C16               JUNCTION  -nan(ind)     0.00  5134.67     0  00:00        0.00
  VR-C17               JUNCTION  -nan(ind)     0.00  5137.36     0  00:00        0.00
  VR-C18               JUNCTION  -nan(ind)     0.00  5139.85     0  00:00        0.00
  VR-C19               JUNCTION  -nan(ind)     0.00  5141.13     0  00:00        0.00
  VR-C1A               JUNCTION  -nan(ind)     0.00  5085.13     0  00:00        0.00
  VR-C2                JUNCTION  -nan(ind)     0.00  5092.58     0  00:00        0.00
  VR-C20               JUNCTION  -nan(ind)     0.00  5144.52     0  00:00        0.00
  VR-C3                JUNCTION  -nan(ind)     0.00  5093.76     0  00:00        0.00
  VR-C4                JUNCTION  -nan(ind)     0.00  5094.64     0  00:00        0.00
  VR-C5                JUNCTION  -nan(ind)     0.00  5095.39     0  00:00        0.00
  VR-C6                JUNCTION  -nan(ind)     0.00  5096.22     0  00:00        0.00
  VR-C7                JUNCTION  -nan(ind)     0.00  5097.09     0  00:00        0.00
  VR-C8                JUNCTION  -nan(ind)     0.00  5097.69     0  00:00        0.00
  VR-C9                JUNCTION  -nan(ind)     0.00  5098.94     0  00:00        0.00
  WF-001               JUNCTION  -nan(ind)     0.00  4993.09     0  00:00        0.00
  WF-002               JUNCTION  -nan(ind)     0.00  4993.30     0  00:00        0.00
  WF-003               JUNCTION  -nan(ind)     0.00  4993.75     0  00:00        0.00
  WF-004               JUNCTION  -nan(ind)     0.00  4994.13     0  00:00        0.00
  WF-005               JUNCTION  -nan(ind)     0.00  4994.55     0  00:00        0.00
  WF-006               JUNCTION  -nan(ind)     0.00  4994.90     0  00:00        0.00
  WF-007               JUNCTION  -nan(ind)     0.00  4995.23     0  00:00        0.00
  WF-008               JUNCTION  -nan(ind)     0.00  4995.41     0  00:00        0.00
  WF-009               JUNCTION  -nan(ind)     0.00  4995.59     0  00:00        0.00
  WF-010               JUNCTION  -nan(ind)     0.00  4995.98     0  00:00        0.00
  WF-011               JUNCTION  -nan(ind)     0.00  4996.48     0  00:00        0.00
  WF-012               JUNCTION  -nan(ind)     0.00  4996.98     0  00:00        0.00
  WF-013               JUNCTION  -nan(ind)     0.00  4997.48     0  00:00        0.00
  WF-014               JUNCTION  -nan(ind)     0.00  4997.98     0  00:00        0.00
  WF-015               JUNCTION  -nan(ind)     0.00  4998.48     0  00:00        0.00
  WF-016               JUNCTION  -nan(ind)     0.00  4998.98     0  00:00        0.00
  WF-017               JUNCTION  -nan(ind)     0.00  4999.26     0  00:00        0.00
  WF-018               JUNCTION  -nan(ind)     0.00  4999.39     0  00:00        0.00
  WF-019               JUNCTION  -nan(ind)     0.00  4999.89     0  00:00        0.00
  WF-020               JUNCTION  -nan(ind)     0.00  5000.39     0  00:00        0.00
  WF-021               JUNCTION  -nan(ind)     0.00  5000.60     0  00:00        0.00
  WF-021A              JUNCTION  -nan(ind)     0.00  5000.79     0  00:00        0.00
  WF-022               JUNCTION  -nan(ind)     0.00  5001.09     0  00:00        0.00
  WF-023               JUNCTION  -nan(ind)     0.00  5001.40     0  00:00        0.00
  WF-024               JUNCTION  -nan(ind)     0.00  5001.87     0  00:00        0.00
  WF-025               JUNCTION  -nan(ind)     0.00  5002.33     0  00:00        0.00
  WF-026               JUNCTION  -nan(ind)     0.00  5002.78     0  00:00        0.00
  WF-027               JUNCTION  -nan(ind)     0.00  5003.28     0  00:00        0.00
  WF-028               JUNCTION  -nan(ind)     0.00  5003.78     0  00:00        0.00
  WF-029               JUNCTION  -nan(ind)     0.00  5004.13     0  00:00        0.00
  WF-030               JUNCTION  -nan(ind)     0.00  5005.16     0  00:00        0.00
  WF-031               JUNCTION  -nan(ind)     0.00  5006.03     0  00:00        0.00
  WF-032               JUNCTION  -nan(ind)     0.00  5006.32     0  00:00        0.00
  WF-033               JUNCTION  -nan(ind)     0.00  5007.52     0  00:00        0.00
  WF-034               JUNCTION  -nan(ind)     0.00  5008.52     0  00:00        0.00
  WF-035               JUNCTION  -nan(ind)     0.00  5009.10     0  00:00        0.00
  WF-036               JUNCTION  -nan(ind)     0.00  5013.00     0  00:00        0.00
  WF-037               JUNCTION  -nan(ind)     0.00  5014.77     0  00:00        0.00
  WF-038               JUNCTION  -nan(ind)     0.00  5015.13     0  00:00        0.00
  WF-039               JUNCTION  -nan(ind)     0.00  5015.46     0  00:00        0.00
  WF-040               JUNCTION  -nan(ind)     0.00  5016.40     0  00:00        0.00
  WF-041               JUNCTION  -nan(ind)     0.00  5017.36     0  00:00        0.00
  WF-042               JUNCTION  -nan(ind)     0.00  5018.33     0  00:00        0.00
  WF-043               JUNCTION  -nan(ind)     0.00  5018.46     0  00:00        0.00
  WF-044               JUNCTION  -nan(ind)     0.00  5019.29     0  00:00        0.00
  WF-045               JUNCTION  -nan(ind)     0.00  5020.00     0  00:00        0.00
  WF-046               JUNCTION  -nan(ind)     0.00  5031.61     0  00:00        0.00
  WF-047               JUNCTION  -nan(ind)     0.00  5039.71     0  00:00        0.00
  WF-048               JUNCTION  -nan(ind)     0.00  5046.01     0  00:00        0.00
  WF-049               JUNCTION  -nan(ind)     0.00  5046.97     0  00:00        0.00
  WF-051               JUNCTION  -nan(ind)     0.00  5053.36     0  00:00        0.00
  WF-052               JUNCTION  -nan(ind)     0.00  5054.78     0  00:00        0.00
  WF-053               JUNCTION  -nan(ind)     0.00  5058.37     0  00:00        0.00
  WF-054               JUNCTION  -nan(ind)     0.00  5062.47     0  00:00        0.00
  WF-055               JUNCTION  -nan(ind)     0.00  5068.33     0  00:00        0.00
  WF-056               JUNCTION  -nan(ind)     0.00  5073.75     0  00:00        0.00
  WF-057               JUNCTION  -nan(ind)     0.00  5077.79     0  00:00        0.00
  WF-058               JUNCTION  -nan(ind)     0.00  5080.75     0  00:00        0.00
  WRF-000              JUNCTION  -nan(ind)     0.00  4990.45     0  00:00        0.00
  WRF-001              JUNCTION  -nan(ind)     0.00  4989.99     0  00:00        0.00
  WRF-002              JUNCTION  -nan(ind)     0.00  4987.82     0  00:00        0.00
  WRF-003              JUNCTION  -nan(ind)     0.00  4987.47     0  00:00        0.00
  WRF-004              JUNCTION  -nan(ind)     0.00  4986.22     0  00:00        0.00
  WRF-005              JUNCTION  -nan(ind)     0.00  4984.76     0  00:00        0.00
  WRF-006              JUNCTION  -nan(ind)     0.00  4984.06     0  00:00        0.00
  WRF-007              JUNCTION  -nan(ind)     0.00  4983.03     0  00:00        0.00
  WRF-008              JUNCTION  -nan(ind)     0.00  4966.03     0  00:00        0.00
  WRF-009              JUNCTION  -nan(ind)     0.00  4962.47     0  00:00        0.00
  WRF-010              JUNCTION  -nan(ind)     0.00  4961.19     0  00:00        0.00
  WRF-011              JUNCTION  -nan(ind)     0.00  4959.32     0  00:00        0.00
  WRF-012              JUNCTION  -nan(ind)     0.00  4956.86     0  00:00        0.00
  WRF-013              JUNCTION  -nan(ind)     0.00  4954.27     0  00:00        0.00
  WRF-014              JUNCTION  -nan(ind)     0.00  4952.81     0  00:00        0.00
  WRF-015              JUNCTION  -nan(ind)     0.00  4951.54     0  00:00        0.00
  WRF-016              JUNCTION  -nan(ind)     0.00  4946.62     0  00:00        0.00
  WRF-017              JUNCTION  -nan(ind)     0.00  4941.84     0  00:00        0.00
  NWRF1                OUTFALL   -nan(ind)     0.00  4926.95     0  00:00        0.00
  WWTP                 OUTFALL   -nan(ind)     0.00  4989.00     0  00:00        0.00
  
  
  *******************
  Node Inflow Summary
  *******************
  
  -------------------------------------------------------------------------------------------------
                                  Maximum  Maximum                  Lateral       Total        Flow
                                  Lateral    Total  Time of Max      Inflow      Inflow     Balance
                                   Inflow   Inflow   Occurrence      Volume      Volume       Error
  Node                 Type           CFS      CFS  days hr:min    10^6 gal    10^6 gal     Percent
  -------------------------------------------------------------------------------------------------
  AI-001               JUNCTION      0.00     0.00     0  00:00           0           0       0.000 gal
  AI-002               JUNCTION      0.00     0.00     0  00:00           0           0       0.000 gal
  AI-003               JUNCTION      0.00     0.00     0  00:00           0           0       0.000 gal
  AI-004               JUNCTION      0.00     0.00     0  00:00           0           0       0.000 gal
  AI-005               JUNCTION      0.00     0.00     0  00:00           0           0       0.000 gal
  AI-006               JUNCTION      0.00     0.00     0  00:00           0           0       0.000 gal
  AI-007               JUNCTION      0.00     0.00     0  00:00           0           0       0.000 gal
  AI-008               JUNCTION      0.00     0.00     0  00:00           0           0       0.000 gal
  AI-009               JUNCTION      0.00     0.00     0  00:00           0           0       0.000 gal
[...]
  TG-040_TG-039           1.00   -nan(ind)  -nan(ind)  -nan(ind)  -nan(ind)  -nan(ind)  -nan(ind)  -nan(ind)  -nan(ind)  -nan(ind)
  TG-041_TG-040           1.00   -nan(ind)  -nan(ind)  -nan(ind)  -nan(ind)  -nan(ind)  -nan(ind)  -nan(ind)  -nan(ind)  -nan(ind)
  TG-042_TG-041           1.00   -nan(ind)  -nan(ind)  -nan(ind)  -nan(ind)  -nan(ind)  -nan(ind)  -nan(ind)  -nan(ind)  -nan(ind)
  TG-043_TG-042           1.00   -nan(ind)  -nan(ind)  -nan(ind)  -nan(ind)  -nan(ind)  -nan(ind)  -nan(ind)  -nan(ind)  -nan(ind)
  TG038_TG037             1.00   -nan(ind)  -nan(ind)  -nan(ind)  -nan(ind)  -nan(ind)  -nan(ind)  -nan(ind)  -nan(ind)  -nan(ind)
  VP-01_CC-13             1.00   -nan(ind)  -nan(ind)  -nan(ind)  -nan(ind)  -nan(ind)  -nan(ind)  -nan(ind)  -nan(ind)  -nan(ind)
  VP-02_VP-01             1.00   -nan(ind)  -nan(ind)  -nan(ind)  -nan(ind)  -nan(ind)  -nan(ind)  -nan(ind)  -nan(ind)  -nan(ind)
  VP-03_VP-02             1.00   -nan(ind)  -nan(ind)  -nan(ind)  -nan(ind)  -nan(ind)  -nan(ind)  -nan(ind)  -nan(ind)  -nan(ind)
  VP-04_VP-03             1.00   -nan(ind)  -nan(ind)  -nan(ind)  -nan(ind)  -nan(ind)  -nan(ind)  -nan(ind)  -nan(ind)  -nan(ind)
  VP-05_VP-04             1.00   -nan(ind)  -nan(ind)  -nan(ind)  -nan(ind)  -nan(ind)  -nan(ind)  -nan(ind)  -nan(ind)  -nan(ind)
  VP-06_VP-05             1.00   -nan(ind)  -nan(ind)  -nan(ind)  -nan(ind)  -nan(ind)  -nan(ind)  -nan(ind)  -nan(ind)  -nan(ind)
  VP-07_VP-06             1.00   -nan(ind)  -nan(ind)  -nan(ind)  -nan(ind)  -nan(ind)  -nan(ind)  -nan(ind)  -nan(ind)  -nan(ind)
  VP-08_VP-07             1.00   -nan(ind)  -nan(ind)  -nan(ind)  -nan(ind)  -nan(ind)  -nan(ind)  -nan(ind)  -nan(ind)  -nan(ind)
  VP-09_VP-08             1.00   -nan(ind)  -nan(ind)  -nan(ind)  -nan(ind)  -nan(ind)  -nan(ind)  -nan(ind)  -nan(ind)  -nan(ind)
  VP-10_VP-09             1.00   -nan(ind)  -nan(ind)  -nan(ind)  -nan(ind)  -nan(ind)  -nan(ind)  -nan(ind)  -nan(ind)  -nan(ind)
  VP-11_VP-10             1.00   -nan(ind)  -nan(ind)  -nan(ind)  -nan(ind)  -nan(ind)  -nan(ind)  -nan(ind)  -nan(ind)  -nan(ind)
  VP-12_VP-11             1.46   -nan(ind)  -nan(ind)  -nan(ind)  -nan(ind)  -nan(ind)  -nan(ind)  -nan(ind)  -nan(ind)  -nan(ind)
  VP-13_VP-12             1.55   -nan(ind)  -nan(ind)  -nan(ind)  -nan(ind)  -nan(ind)  -nan(ind)  -nan(ind)  -nan(ind)  -nan(ind)
  VP-14_VP-13             1.44   -nan(ind)  -nan(ind)  -nan(ind)  -nan(ind)  -nan(ind)  -nan(ind)  -nan(ind)  -nan(ind)  -nan(ind)
  VP-15_VP-14             1.00   -nan(ind)  -nan(ind)  -nan(ind)  -nan(ind)  -nan(ind)  -nan(ind)  -nan(ind)  -nan(ind)  -nan(ind)
  VP-16_VP-15             1.00   -nan(ind)  -nan(ind)  -nan(ind)  -nan(ind)  -nan(ind)  -nan(ind)  -nan(ind)  -nan(ind)  -nan(ind)
  VP-20_CC-34             1.00   -nan(ind)  -nan(ind)  -nan(ind)  -nan(ind)  -nan(ind)  -nan(ind)  -nan(ind)  -nan(ind)  -nan(ind)
  VP-21_VP-20             2.03   -nan(ind)  -nan(ind)  -nan(ind)  -nan(ind)  -nan(ind)  -nan(ind)  -nan(ind)  -nan(ind)  -nan(ind)
  VP-23_VP-21             1.00   -nan(ind)  -nan(ind)  -nan(ind)  -nan(ind)  -nan(ind)  -nan(ind)  -nan(ind)  -nan(ind)  -nan(ind)
  VP-24_VP-23             2.46   -nan(ind)  -nan(ind)  -nan(ind)  -nan(ind)  -nan(ind)  -nan(ind)  -nan(ind)  -nan(ind)  -nan(ind)
  VP-25_VP-24             2.62   -nan(ind)  -nan(ind)  -nan(ind)  -nan(ind)  -nan(ind)  -nan(ind)  -nan(ind)  -nan(ind)  -nan(ind)
  VP-26_VP-25             2.29   -nan(ind)  -nan(ind)  -nan(ind)  -nan(ind)  -nan(ind)  -nan(ind)  -nan(ind)  -nan(ind)  -nan(ind)
  VP-27_VP-26             1.96   -nan(ind)  -nan(ind)  -nan(ind)  -nan(ind)  -nan(ind)  -nan(ind)  -nan(ind)  -nan(ind)  -nan(ind)
  VP-28_VP-27             1.00   -nan(ind)  -nan(ind)  -nan(ind)  -nan(ind)  -nan(ind)  -nan(ind)  -nan(ind)  -nan(ind)  -nan(ind)
  VP-29_VP-28             1.00   -nan(ind)  -nan(ind)  -nan(ind)  -nan(ind)  -nan(ind)  -nan(ind)  -nan(ind)  -nan(ind)  -nan(ind)
  VP1-100_VP-29           1.00   -nan(ind)  -nan(ind)  -nan(ind)  -nan(ind)  -nan(ind)  -nan(ind)  -nan(ind)  -nan(ind)  -nan(ind)
  VP1-101_VP1-100         1.00   -nan(ind)  -nan(ind)  -nan(ind)  -nan(ind)  -nan(ind)  -nan(ind)  -nan(ind)  -nan(ind)  -nan(ind)
  VP1-102_VP1-101         1.00   -nan(ind)  -nan(ind)  -nan(ind)  -nan(ind)  -nan(ind)  -nan(ind)  -nan(ind)  -nan(ind)  -nan(ind)
  VP1-103_VP1-100         1.00   -nan(ind)  -nan(ind)  -nan(ind)  -nan(ind)  -nan(ind)  -nan(ind)  -nan(ind)  -nan(ind)  -nan(ind)
  VP1-104_VP1-103         1.00   -nan(ind)  -nan(ind)  -nan(ind)  -nan(ind)  -nan(ind)  -nan(ind)  -nan(ind)  -nan(ind)  -nan(ind)
  VP1-105_VP1-104         1.00   -nan(ind)  -nan(ind)  -nan(ind)  -nan(ind)  -nan(ind)  -nan(ind)  -nan(ind)  -nan(ind)  -nan(ind)
  VR-A1A_CC-43            1.00   -nan(ind)  -nan(ind)  -nan(ind)  -nan(ind)  -nan(ind)  -nan(ind)  -nan(ind)  -nan(ind)  -nan(ind)
  VR-A4_VR-A1A            1.00   -nan(ind)  -nan(ind)  -nan(ind)  -nan(ind)  -nan(ind)  -nan(ind)  -nan(ind)  -nan(ind)  -nan(ind)
  VR-A5_VR-A4             1.00   -nan(ind)  -nan(ind)  -nan(ind)  -nan(ind)  -nan(ind)  -nan(ind)  -nan(ind)  -nan(ind)  -nan(ind)
  VR-A6_VR-A5             1.00   -nan(ind)  -nan(ind)  -nan(ind)  -nan(ind)  -nan(ind)  -nan(ind)  -nan(ind)  -nan(ind)  -nan(ind)
  VR-A7_VR-A6             1.00   -nan(ind)  -nan(ind)  -nan(ind)  -nan(ind)  -nan(ind)  -nan(ind)  -nan(ind)  -nan(ind)  -nan(ind)
  VR-A8_VR-A7             1.00   -nan(ind)  -nan(ind)  -nan(ind)  -nan(ind)  -nan(ind)  -nan(ind)  -nan(ind)  -nan(ind)  -nan(ind)
  VR-A9_VR-A8             1.00   -nan(ind)  -nan(ind)  -nan(ind)  -nan(ind)  -nan(ind)  -nan(ind)  -nan(ind)  -nan(ind)  -nan(ind)
  VR-B1A_VR-B1            1.00   -nan(ind)  -nan(ind)  -nan(ind)  -nan(ind)  -nan(ind)  -nan(ind)  -nan(ind)  -nan(ind)  -nan(ind)
  VR-B1_VR-A7             1.00   -nan(ind)  -nan(ind)  -nan(ind)  -nan(ind)  -nan(ind)  -nan(ind)  -nan(ind)  -nan(ind)  -nan(ind)
  VR-B2_VR-B1A            1.00   -nan(ind)  -nan(ind)  -nan(ind)  -nan(ind)  -nan(ind)  -nan(ind)  -nan(ind)  -nan(ind)  -nan(ind)
  VR-B3_VR-B2             1.00   -nan(ind)  -nan(ind)  -nan(ind)  -nan(ind)  -nan(ind)  -nan(ind)  -nan(ind)  -nan(ind)  -nan(ind)
  VR-B4_VR-B3             1.00   -nan(ind)  -nan(ind)  -nan(ind)  -nan(ind)  -nan(ind)  -nan(ind)  -nan(ind)  -nan(ind)  -nan(ind)
  VR-B5_VR-B4             1.00   -nan(ind)  -nan(ind)  -nan(ind)  -nan(ind)  -nan(ind)  -nan(ind)  -nan(ind)  -nan(ind)  -nan(ind)
  VR-B6_VR-B5             1.00   -nan(ind)  -nan(ind)  -nan(ind)  -nan(ind)  -nan(ind)  -nan(ind)  -nan(ind)  -nan(ind)  -nan(ind)
  VR-B7B_VR-B7            1.00   -nan(ind)  -nan(ind)  -nan(ind)  -nan(ind)  -nan(ind)  -nan(ind)  -nan(ind)  -nan(ind)  -nan(ind)
  VR-B7_VR-B6             1.00   -nan(ind)  -nan(ind)  -nan(ind)  -nan(ind)  -nan(ind)  -nan(ind)  -nan(ind)  -nan(ind)  -nan(ind)
  VR-C10_VR-C9            1.11   -nan(ind)  -nan(ind)  -nan(ind)  -nan(ind)  -nan(ind)  -nan(ind)  -nan(ind)  -nan(ind)  -nan(ind)
  VR-C11_VR-C10           1.15   -nan(ind)  -nan(ind)  -nan(ind)  -nan(ind)  -nan(ind)  -nan(ind)  -nan(ind)  -nan(ind)  -nan(ind)
  VR-C12_VR-C11           1.20   -nan(ind)  -nan(ind)  -nan(ind)  -nan(ind)  -nan(ind)  -nan(ind)  -nan(ind)  -nan(ind)  -nan(ind)
  VR-C13_VR-C12           1.00   -nan(ind)  -nan(ind)  -nan(ind)  -nan(ind)  -nan(ind)  -nan(ind)  -nan(ind)  -nan(ind)  -nan(ind)
  VR-C14_VR-C13           1.00   -nan(ind)  -nan(ind)  -nan(ind)  -nan(ind)  -nan(ind)  -nan(ind)  -nan(ind)  -nan(ind)  -nan(ind)
  VR-C15_VR-C14           1.00   -nan(ind)  -nan(ind)  -nan(ind)  -nan(ind)  -nan(ind)  -nan(ind)  -nan(ind)  -nan(ind)  -nan(ind)
  VR-C16_VR-C15           1.00   -nan(ind)  -nan(ind)  -nan(ind)  -nan(ind)  -nan(ind)  -nan(ind)  -nan(ind)  -nan(ind)  -nan(ind)
  VR-C17_VR-C16           1.00   -nan(ind)  -nan(ind)  -nan(ind)  -nan(ind)  -nan(ind)  -nan(ind)  -nan(ind)  -nan(ind)  -nan(ind)
  VR-C18_VR-C17           1.00   -nan(ind)  -nan(ind)  -nan(ind)  -nan(ind)  -nan(ind)  -nan(ind)  -nan(ind)  -nan(ind)  -nan(ind)
  VR-C19_VR-C18           1.00   -nan(ind)  -nan(ind)  -nan(ind)  -nan(ind)  -nan(ind)  -nan(ind)  -nan(ind)  -nan(ind)  -nan(ind)
  VR-C1A_CC-38            1.00   -nan(ind)  -nan(ind)  -nan(ind)  -nan(ind)  -nan(ind)  -nan(ind)  -nan(ind)  -nan(ind)  -nan(ind)
  VR-C1_VR-C1A            1.00   -nan(ind)  -nan(ind)  -nan(ind)  -nan(ind)  -nan(ind)  -nan(ind)  -nan(ind)  -nan(ind)  -nan(ind)
  VR-C20_VR-C19           1.00   -nan(ind)  -nan(ind)  -nan(ind)  -nan(ind)  -nan(ind)  -nan(ind)  -nan(ind)  -nan(ind)  -nan(ind)
  VR-C2_VR-C1             1.00   -nan(ind)  -nan(ind)  -nan(ind)  -nan(ind)  -nan(ind)  -nan(ind)  -nan(ind)  -nan(ind)  -nan(ind)
  VR-C3_VR-C2             1.00   -nan(ind)  -nan(ind)  -nan(ind)  -nan(ind)  -nan(ind)  -nan(ind)  -nan(ind)  -nan(ind)  -nan(ind)
  VR-C4_VR-C3             1.00   -nan(ind)  -nan(ind)  -nan(ind)  -nan(ind)  -nan(ind)  -nan(ind)  -nan(ind)  -nan(ind)  -nan(ind)
  VR-C5_VR-C4             1.00   -nan(ind)  -nan(ind)  -nan(ind)  -nan(ind)  -nan(ind)  -nan(ind)  -nan(ind)  -nan(ind)  -nan(ind)
  VR-C6_VR-C5             1.00   -nan(ind)  -nan(ind)  -nan(ind)  -nan(ind)  -nan(ind)  -nan(ind)  -nan(ind)  -nan(ind)  -nan(ind)
  VR-C7_VR-C6             1.00   -nan(ind)  -nan(ind)  -nan(ind)  -nan(ind)  -nan(ind)  -nan(ind)  -nan(ind)  -nan(ind)  -nan(ind)
  VR-C8_VR-C7             1.04   -nan(ind)  -nan(ind)  -nan(ind)  -nan(ind)  -nan(ind)  -nan(ind)  -nan(ind)  -nan(ind)  -nan(ind)
  VR-C9_VR-C8             1.00   -nan(ind)  -nan(ind)  -nan(ind)  -nan(ind)  -nan(ind)  -nan(ind)  -nan(ind)  -nan(ind)  -nan(ind)
  WF-001_WRF-000          1.00   -nan(ind)  -nan(ind)  -nan(ind)  -nan(ind)  -nan(ind)  -nan(ind)  -nan(ind)  -nan(ind)  -nan(ind)
  WF-002_WF-001           1.00   -nan(ind)  -nan(ind)  -nan(ind)  -nan(ind)  -nan(ind)  -nan(ind)  -nan(ind)  -nan(ind)  -nan(ind)
  WF-003_WF-002           1.00   -nan(ind)  -nan(ind)  -nan(ind)  -nan(ind)  -nan(ind)  -nan(ind)  -nan(ind)  -nan(ind)  -nan(ind)
  WF-004_WF-003           1.00   -nan(ind)  -nan(ind)  -nan(ind)  -nan(ind)  -nan(ind)  -nan(ind)  -nan(ind)  -nan(ind)  -nan(ind)
  WF-005_WF-004           1.00   -nan(ind)  -nan(ind)  -nan(ind)  -nan(ind)  -nan(ind)  -nan(ind)  -nan(ind)  -nan(ind)  -nan(ind)
  WF-006_WF-005           1.00   -nan(ind)  -nan(ind)  -nan(ind)  -nan(ind)  -nan(ind)  -nan(ind)  -nan(ind)  -nan(ind)  -nan(ind)
  WF-007_WF-006           1.00   -nan(ind)  -nan(ind)  -nan(ind)  -nan(ind)  -nan(ind)  -nan(ind)  -nan(ind)  -nan(ind)  -nan(ind)
  WF-008_WF-007           1.00   -nan(ind)  -nan(ind)  -nan(ind)  -nan(ind)  -nan(ind)  -nan(ind)  -nan(ind)  -nan(ind)  -nan(ind)
  WF-009_WF-008           1.00   -nan(ind)  -nan(ind)  -nan(ind)  -nan(ind)  -nan(ind)  -nan(ind)  -nan(ind)  -nan(ind)  -nan(ind)
  WF-010_WF-009           1.00   -nan(ind)  -nan(ind)  -nan(ind)  -nan(ind)  -nan(ind)  -nan(ind)  -nan(ind)  -nan(ind)  -nan(ind)
  WF-011_WF-010           1.00   -nan(ind)  -nan(ind)  -nan(ind)  -nan(ind)  -nan(ind)  -nan(ind)  -nan(ind)  -nan(ind)  -nan(ind)
  WF-012_WF-011           1.00   -nan(ind)  -nan(ind)  -nan(ind)  -nan(ind)  -nan(ind)  -nan(ind)  -nan(ind)  -nan(ind)  -nan(ind)
  WF-013_WF-012           1.00   -nan(ind)  -nan(ind)  -nan(ind)  -nan(ind)  -nan(ind)  -nan(ind)  -nan(ind)  -nan(ind)  -nan(ind)
  WF-014_WF-013           1.00   -nan(ind)  -nan(ind)  -nan(ind)  -nan(ind)  -nan(ind)  -nan(ind)  -nan(ind)  -nan(ind)  -nan(ind)
  WF-015_WF-014           1.00   -nan(ind)  -nan(ind)  -nan(ind)  -nan(ind)  -nan(ind)  -nan(ind)  -nan(ind)  -nan(ind)  -nan(ind)
  WF-016_WF-015           1.00   -nan(ind)  -nan(ind)  -nan(ind)  -nan(ind)  -nan(ind)  -nan(ind)  -nan(ind)  -nan(ind)  -nan(ind)
  WF-017_WF-016           1.00   -nan(ind)  -nan(ind)  -nan(ind)  -nan(ind)  -nan(ind)  -nan(ind)  -nan(ind)  -nan(ind)  -nan(ind)
  WF-018_WF-017           1.00   -nan(ind)  -nan(ind)  -nan(ind)  -nan(ind)  -nan(ind)  -nan(ind)  -nan(ind)  -nan(ind)  -nan(ind)
  WF-019_WF-018           1.00   -nan(ind)  -nan(ind)  -nan(ind)  -nan(ind)  -nan(ind)  -nan(ind)  -nan(ind)  -nan(ind)  -nan(ind)
  WF-020_WF-019           1.00   -nan(ind)  -nan(ind)  -nan(ind)  -nan(ind)  -nan(ind)  -nan(ind)  -nan(ind)  -nan(ind)  -nan(ind)
  WF-021A_WF-021          1.00   -nan(ind)  -nan(ind)  -nan(ind)  -nan(ind)  -nan(ind)  -nan(ind)  -nan(ind)  -nan(ind)  -nan(ind)
  WF-021_WF-020           1.00   -nan(ind)  -nan(ind)  -nan(ind)  -nan(ind)  -nan(ind)  -nan(ind)  -nan(ind)  -nan(ind)  -nan(ind)
  WF-022_WF-021A          1.00   -nan(ind)  -nan(ind)  -nan(ind)  -nan(ind)  -nan(ind)  -nan(ind)  -nan(ind)  -nan(ind)  -nan(ind)
  WF-023_WF-022           1.00   -nan(ind)  -nan(ind)  -nan(ind)  -nan(ind)  -nan(ind)  -nan(ind)  -nan(ind)  -nan(ind)  -nan(ind)
  WF-024_WF-023           1.00   -nan(ind)  -nan(ind)  -nan(ind)  -nan(ind)  -nan(ind)  -nan(ind)  -nan(ind)  -nan(ind)  -nan(ind)
  WF-025_WF-024           1.00   -nan(ind)  -nan(ind)  -nan(ind)  -nan(ind)  -nan(ind)  -nan(ind)  -nan(ind)  -nan(ind)  -nan(ind)
  WF-026_WF-025           1.00   -nan(ind)  -nan(ind)  -nan(ind)  -nan(ind)  -nan(ind)  -nan(ind)  -nan(ind)  -nan(ind)  -nan(ind)
  WF-027_WF-026           1.00   -nan(ind)  -nan(ind)  -nan(ind)  -nan(ind)  -nan(ind)  -nan(ind)  -nan(ind)  -nan(ind)  -nan(ind)
  WF-028_WF-027           1.00   -nan(ind)  -nan(ind)  -nan(ind)  -nan(ind)  -nan(ind)  -nan(ind)  -nan(ind)  -nan(ind)  -nan(ind)
  WF-029_WF-028           1.00   -nan(ind)  -nan(ind)  -nan(ind)  -nan(ind)  -nan(ind)  -nan(ind)  -nan(ind)  -nan(ind)  -nan(ind)
  WF-030_WF-029           1.00   -nan(ind)  -nan(ind)  -nan(ind)  -nan(ind)  -nan(ind)  -nan(ind)  -nan(ind)  -nan(ind)  -nan(ind)
  WF-031_WF-030           1.00   -nan(ind)  -nan(ind)  -nan(ind)  -nan(ind)  -nan(ind)  -nan(ind)  -nan(ind)  -nan(ind)  -nan(ind)
  WF-032_WF-031           1.27   -nan(ind)  -nan(ind)  -nan(ind)  -nan(ind)  -nan(ind)  -nan(ind)  -nan(ind)  -nan(ind)  -nan(ind)
  WF-033_WF-032           1.00   -nan(ind)  -nan(ind)  -nan(ind)  -nan(ind)  -nan(ind)  -nan(ind)  -nan(ind)  -nan(ind)  -nan(ind)
  WF-034_WF-033           1.00   -nan(ind)  -nan(ind)  -nan(ind)  -nan(ind)  -nan(ind)  -nan(ind)  -nan(ind)  -nan(ind)  -nan(ind)
  WF-035_WF-034           1.00   -nan(ind)  -nan(ind)  -nan(ind)  -nan(ind)  -nan(ind)  -nan(ind)  -nan(ind)  -nan(ind)  -nan(ind)
  WF-036_WF-035           1.00   -nan(ind)  -nan(ind)  -nan(ind)  -nan(ind)  -nan(ind)  -nan(ind)  -nan(ind)  -nan(ind)  -nan(ind)
  WF-037_WF-036           1.00   -nan(ind)  -nan(ind)  -nan(ind)  -nan(ind)  -nan(ind)  -nan(ind)  -nan(ind)  -nan(ind)  -nan(ind)
  WF-038_WF-037           1.00   -nan(ind)  -nan(ind)  -nan(ind)  -nan(ind)  -nan(ind)  -nan(ind)  -nan(ind)  -nan(ind)  -nan(ind)
  WF-039_WF-038           1.00   -nan(ind)  -nan(ind)  -nan(ind)  -nan(ind)  -nan(ind)  -nan(ind)  -nan(ind)  -nan(ind)  -nan(ind)
  WF-040_WF-039           1.00   -nan(ind)  -nan(ind)  -nan(ind)  -nan(ind)  -nan(ind)  -nan(ind)  -nan(ind)  -nan(ind)  -nan(ind)
  WF-041_WF-040           1.00   -nan(ind)  -nan(ind)  -nan(ind)  -nan(ind)  -nan(ind)  -nan(ind)  -nan(ind)  -nan(ind)  -nan(ind)
  WF-042_WF-041           1.00   -nan(ind)  -nan(ind)  -nan(ind)  -nan(ind)  -nan(ind)  -nan(ind)  -nan(ind)  -nan(ind)  -nan(ind)
  WF-043_WF-042           1.14   -nan(ind)  -nan(ind)  -nan(ind)  -nan(ind)  -nan(ind)  -nan(ind)  -nan(ind)  -nan(ind)  -nan(ind)
  WF-044_WF-043           1.00   -nan(ind)  -nan(ind)  -nan(ind)  -nan(ind)  -nan(ind)  -nan(ind)  -nan(ind)  -nan(ind)  -nan(ind)
  WF-045_WF-044           1.00   -nan(ind)  -nan(ind)  -nan(ind)  -nan(ind)  -nan(ind)  -nan(ind)  -nan(ind)  -nan(ind)  -nan(ind)
  WF-046_WF-045           1.00   -nan(ind)  -nan(ind)  -nan(ind)  -nan(ind)  -nan(ind)  -nan(ind)  -nan(ind)  -nan(ind)  -nan(ind)
  WF-047_WF-046           1.00   -nan(ind)  -nan(ind)  -nan(ind)  -nan(ind)  -nan(ind)  -nan(ind)  -nan(ind)  -nan(ind)  -nan(ind)
  WF-048_WF-047           1.00   -nan(ind)  -nan(ind)  -nan(ind)  -nan(ind)  -nan(ind)  -nan(ind)  -nan(ind)  -nan(ind)  -nan(ind)
  WF-049_WF-048           1.00   -nan(ind)  -nan(ind)  -nan(ind)  -nan(ind)  -nan(ind)  -nan(ind)  -nan(ind)  -nan(ind)  -nan(ind)
  WF-051_WF-049           1.00   -nan(ind)  -nan(ind)  -nan(ind)  -nan(ind)  -nan(ind)  -nan(ind)  -nan(ind)  -nan(ind)  -nan(ind)
  WF-052_WF-051           1.00   -nan(ind)  -nan(ind)  -nan(ind)  -nan(ind)  -nan(ind)  -nan(ind)  -nan(ind)  -nan(ind)  -nan(ind)
  WF-053_WF-052           1.00   -nan(ind)  -nan(ind)  -nan(ind)  -nan(ind)  -nan(ind)  -nan(ind)  -nan(ind)  -nan(ind)  -nan(ind)
  WF-054_WF-053           1.00   -nan(ind)  -nan(ind)  -nan(ind)  -nan(ind)  -nan(ind)  -nan(ind)  -nan(ind)  -nan(ind)  -nan(ind)
  WF-055_WF-054           1.00   -nan(ind)  -nan(ind)  -nan(ind)  -nan(ind)  -nan(ind)  -nan(ind)  -nan(ind)  -nan(ind)  -nan(ind)
  WF-056_WF-055           1.00   -nan(ind)  -nan(ind)  -nan(ind)  -nan(ind)  -nan(ind)  -nan(ind)  -nan(ind)  -nan(ind)  -nan(ind)
  WF-057_WF-056           1.00   -nan(ind)  -nan(ind)  -nan(ind)  -nan(ind)  -nan(ind)  -nan(ind)  -nan(ind)  -nan(ind)  -nan(ind)
  WF-058_WF-057           1.00   -nan(ind)  -nan(ind)  -nan(ind)  -nan(ind)  -nan(ind)  -nan(ind)  -nan(ind)  -nan(ind)  -nan(ind)
  WRF-000_WRF-001         1.00   -nan(ind)  -nan(ind)  -nan(ind)  -nan(ind)  -nan(ind)  -nan(ind)  -nan(ind)  -nan(ind)  -nan(ind)
  WRF-000_WWTP            4.75   -nan(ind)  -nan(ind)  -nan(ind)  -nan(ind)  -nan(ind)  -nan(ind)  -nan(ind)  -nan(ind)  -nan(ind)
  WRF-001_WRF-002         1.00   -nan(ind)  -nan(ind)  -nan(ind)  -nan(ind)  -nan(ind)  -nan(ind)  -nan(ind)  -nan(ind)  -nan(ind)
  WRF-002_WRF-003         1.15   -nan(ind)  -nan(ind)  -nan(ind)  -nan(ind)  -nan(ind)  -nan(ind)  -nan(ind)  -nan(ind)  -nan(ind)
  WRF-003_WRF-004         1.00   -nan(ind)  -nan(ind)  -nan(ind)  -nan(ind)  -nan(ind)  -nan(ind)  -nan(ind)  -nan(ind)  -nan(ind)
  WRF-004_WRF-005         1.00   -nan(ind)  -nan(ind)  -nan(ind)  -nan(ind)  -nan(ind)  -nan(ind)  -nan(ind)  -nan(ind)  -nan(ind)
  WRF-005_WRF-006         1.00   -nan(ind)  -nan(ind)  -nan(ind)  -nan(ind)  -nan(ind)  -nan(ind)  -nan(ind)  -nan(ind)  -nan(ind)
  WRF-006_WRF-007         1.00   -nan(ind)  -nan(ind)  -nan(ind)  -nan(ind)  -nan(ind)  -nan(ind)  -nan(ind)  -nan(ind)  -nan(ind)
  WRF-007_WRF-008         1.00   -nan(ind)  -nan(ind)  -nan(ind)  -nan(ind)  -nan(ind)  -nan(ind)  -nan(ind)  -nan(ind)  -nan(ind)
  WRF-008_WRF-009         1.00   -nan(ind)  -nan(ind)  -nan(ind)  -nan(ind)  -nan(ind)  -nan(ind)  -nan(ind)  -nan(ind)  -nan(ind)
  WRF-009_WRF-010         1.00   -nan(ind)  -nan(ind)  -nan(ind)  -nan(ind)  -nan(ind)  -nan(ind)  -nan(ind)  -nan(ind)  -nan(ind)
  WRF-010_WRF-011         1.00   -nan(ind)  -nan(ind)  -nan(ind)  -nan(ind)  -nan(ind)  -nan(ind)  -nan(ind)  -nan(ind)  -nan(ind)
  WRF-011_WRF-012         1.00   -nan(ind)  -nan(ind)  -nan(ind)  -nan(ind)  -nan(ind)  -nan(ind)  -nan(ind)  -nan(ind)  -nan(ind)
  WRF-012_WRF-013         1.00   -nan(ind)  -nan(ind)  -nan(ind)  -nan(ind)  -nan(ind)  -nan(ind)  -nan(ind)  -nan(ind)  -nan(ind)
  WRF-013_WRF-014         1.00   -nan(ind)  -nan(ind)  -nan(ind)  -nan(ind)  -nan(ind)  -nan(ind)  -nan(ind)  -nan(ind)  -nan(ind)
  WRF-014_WRF-015         1.00   -nan(ind)  -nan(ind)  -nan(ind)  -nan(ind)  -nan(ind)  -nan(ind)  -nan(ind)  -nan(ind)  -nan(ind)
  WRF-015_WRF-016         1.00   -nan(ind)  -nan(ind)  -nan(ind)  -nan(ind)  -nan(ind)  -nan(ind)  -nan(ind)  -nan(ind)  -nan(ind)
  WRF-016_WRF-017         1.00   -nan(ind)  -nan(ind)  -nan(ind)  -nan(ind)  -nan(ind)  -nan(ind)  -nan(ind)  -nan(ind)  -nan(ind)
  WRF-017_NWRF            1.00   -nan(ind)  -nan(ind)  -nan(ind)  -nan(ind)  -nan(ind)  -nan(ind)  -nan(ind)  -nan(ind)  -nan(ind)
  
  
  *************************
  Conduit Surcharge Summary
  *************************
  
  No conduits were surcharged.
  

  Analysis begun on:  Sat Nov 30 08:10:24 2019
  Analysis ended on:  Sat Nov 30 08:10:24 2019
  Total elapsed time: < 1 sec