
  EPA STORM WATER MANAGEMENT MODEL - VERSION 5.1 (Build 5.1.013)
  --------------------------------------------------------------

  
  *********************************************************
  NOTE: The summary statistics displayed in this report are
  based on results found at every computational time step,  
  not just on results from each reporting time step.
  *********************************************************
  
  ****************
  Analysis Options
  ****************
  Flow Units ............... CFS
  Process Models:
    Rainfall/Runoff ........ NO
    RDII ................... NO
    Snowmelt ............... NO
    Groundwater ............ NO
    Flow Routing ........... YES
    Ponding Allowed ........ NO
    Water Quality .......... NO
  Flow Routing Method ...... DYNWAVE
  Surcharge Method ......... EXTRAN
  Starting Date ............ 01/01/2002 00:00:00
  Ending Date .............. 01/01/2002 06:00:00
  Antecedent Dry Days ...... 5.0
  Report Time Step ......... 00:05:00
  Routing Time Step ........ 30.00 sec
  Variable Time Step ....... YES
  Maximum Trials ........... 8
  Number of Threads ........ 1
  Head Tolerance ........... 0.001000 ft
  
  
  **************************        Volume        Volume
  Flow Routing Continuity        acre-feet      10^6 gal
  **************************     ---------     ---------
  Dry Weather Inflow .......      6321.707      2060.023
  Wet Weather Inflow .......         0.000         0.000
  Groundwater Inflow .......         0.000         0.000
  RDII Inflow ..............         0.000         0.000
  External Inflow ..........         0.000         0.000
  External Outflow .........        82.770        26.972
  Flooding Loss ............      6226.524      2029.006
  Evaporation Loss .........         0.000         0.000
  Exfiltration Loss ........         0.000         0.000
  Initial Stored Volume ....         0.000         0.000
  Final Stored Volume ......        12.320         4.014
  Continuity Error (%) .....         0.001
  
  
  *************************
  Highest Continuity Errors
  *************************
  Node IN-AM-12 (3.14%)
  Node WF-023 (2.98%)
  Node GV2-14 (1.77%)
  Node IN-AM-13 (1.66%)
  Node WRF-008 (1.50%)
  
  
  ***************************
  Time-Step Critical Elements
  ***************************
  Link GV2-37_GV2-36 (88.57%)
  Link WRF-002_WRF-003 (2.63%)
  Link WRF-005_WRF-006 (1.64%)
  
  
  ********************************
  Highest Flow Instability Indexes
  ********************************
  Link CC-17_CC-17A (18)
  Link CC-37.1_CC-37 (17)
  Link CC-30_CC-29 (17)
  Link CFW-032_CFW-033 (17)
  Link OT-100_OT-101 (16)
  
  
  *************************
  Routing Time Step Summary
  *************************
  Minimum Time Step           :     0.06 sec
  Average Time Step           :    17.76 sec
  Maximum Time Step           :    19.18 sec
  Percent in Steady State     :    -0.00
  Average Iterations per Step :     3.19
  Percent Not Converging      :    16.69
  
  
  ******************
  Node Depth Summary
  ******************
  
  ---------------------------------------------------------------------------------
                                 Average  Maximum  Maximum  Time of Max    Reported
                                   Depth    Depth      HGL   Occurrence   Max Depth
  Node                 Type         Feet     Feet     Feet  days hr:min        Feet
  ---------------------------------------------------------------------------------
  AI-001               JUNCTION    12.52    12.86  5105.91     0  00:00       12.81
  AI-002               JUNCTION     9.54     9.77  5093.35     0  00:00        9.77
  AI-003               JUNCTION    10.48    10.79  5089.67     0  00:00       10.79
  AI-004               JUNCTION    11.79    12.14  5086.32     0  00:00       12.14
  AI-005               JUNCTION    12.21    12.54  5081.85     0  00:00       12.54
  AI-006               JUNCTION    13.23    14.34  5082.61     0  00:00       13.58
  AI-007               JUNCTION    13.33    13.68  5080.00     0  00:00       13.68
  AI-008               JUNCTION    11.59    11.91  5073.00     0  00:00       11.91
  AI-009               JUNCTION    12.96    13.70  5066.00     0  00:02       13.54
  AI-010               JUNCTION    11.49    11.89  5064.00     0  00:01       11.89
  AI-011               JUNCTION    11.68    12.04  5063.00     0  00:00       12.04
  AI-012               JUNCTION    13.33    13.73  5063.00     0  00:00       13.73
  AI-013               JUNCTION    11.86    12.21  5060.00     0  00:00       12.21
  AI-014               JUNCTION    12.33    12.69  5059.00     0  00:00       12.69
  AI-015               JUNCTION    13.10    13.46  5058.00     0  00:00       13.46
  AI-016               JUNCTION    14.77    15.14  5058.00     0  00:00       15.14
  AI-017               JUNCTION    16.96    17.34  5058.00     0  00:00       17.34
  AI-018               JUNCTION    20.14    20.54  5059.00     0  00:00       20.54
  AI-019               JUNCTION    21.72    21.90  5058.00     0  00:00       21.90
  AI-020               JUNCTION    12.75    12.90  5048.00     0  00:00       12.90
  AI-021               JUNCTION    15.72    20.54  5054.00     0  00:00       16.11
  AI-022               JUNCTION    15.72    16.18  5048.00     0  00:00       16.18
  AI-023               JUNCTION    12.55    12.96  5037.46     0  00:00       12.96
  AI-024               JUNCTION    15.57    15.91  5029.86     0  00:00       15.91
  AI-025               JUNCTION    12.74    13.12  5025.43     0  00:00       13.12
  AI-026               JUNCTION    14.87    15.33  5026.00     0  00:00       15.33
  AI-027               JUNCTION    17.50    18.30  5025.00     0  00:02       18.30
  AI-100               JUNCTION    16.69    24.04  5066.64     0  00:03       17.66
  AI-110               JUNCTION    18.54    23.72  5061.62     0  00:02       19.54
  AP-01                JUNCTION    10.37    10.82  5068.21     0  00:02       10.82
  AP-02                JUNCTION    12.85    13.38  5071.89     0  00:02       13.38
  AP-03                JUNCTION    13.56    15.50  5076.48     0  00:02       14.14
  AP-04                JUNCTION    11.03    11.51  5074.18     0  00:02       11.51
  AP-05                JUNCTION    11.21    11.75  5077.73     0  00:02       11.75
  AP-06                JUNCTION    13.93    14.60  5084.16     0  00:02       14.60
  AP-07                JUNCTION     8.49     8.84  5080.94     0  00:01        8.84
  AP-08                JUNCTION     4.51     4.71  5078.78     0  00:02        4.71
  AP1-01               JUNCTION    10.71    11.57  5086.29     0  00:02       11.25
  AP1-02               JUNCTION    10.68    11.02  5087.50     0  00:00       11.02
  AP1-03               JUNCTION    11.41    11.80  5089.70     0  00:01       11.80
  AP1-04               JUNCTION    13.21    13.70  5094.69     0  00:01       13.70
  AP1-05               JUNCTION     7.85     8.12  5091.18     0  00:01        8.12
  AP1-06               JUNCTION    12.85    13.19  5104.99     0  00:00       13.19
  AP1-07               JUNCTION    11.82    11.93  5117.39     0  00:00       11.93
  AP2-01               JUNCTION     4.70     4.81  5080.42     0  00:00        4.81
  AP2-02               JUNCTION     4.87     5.61  5092.08     0  00:20        5.45
  AP2-03               JUNCTION     2.03     2.41  5099.68     0  00:20        2.30
  AP2-04               JUNCTION     8.13     8.50  5109.55     0  00:02        8.50
  AP2-05               JUNCTION    13.23    13.40  5124.74     0  00:00       13.40
  AP2-06               JUNCTION    12.76    12.88  5133.34     0  00:00       12.88
  AP3-01               JUNCTION     6.88     6.99  5084.49     0  00:00        6.99
  AP3-02               JUNCTION     3.31     3.47  5083.40     0  00:02        3.47
  ARE-001              JUNCTION    11.11    11.15  5209.97     0  00:00       11.15
  ARE-002              JUNCTION    12.34    12.46  5210.39     0  00:00       12.46
  ARE-004              JUNCTION    10.99    11.10  5207.79     0  00:00       11.10
  ARE-005              JUNCTION    11.04    11.15  5206.65     0  00:00       11.15
  ARE-006              JUNCTION    10.99    11.10  5205.88     0  00:00       11.10
  ARE-025              JUNCTION    11.67    11.80  5205.59     0  00:00       11.80
  ARE-026              JUNCTION    10.88    11.00  5202.53     0  00:00       11.00
  ARE-027              JUNCTION    10.85    11.00  5201.51     0  00:00       11.00
  ARE-029              JUNCTION    11.49    11.65  5199.02     0  00:00       11.65
  ARE-030              JUNCTION    11.37    11.52  5197.88     0  00:00       11.52
  ARE-042              JUNCTION    11.23    11.40  5192.03     0  00:00       11.40
  ARE-043              JUNCTION    10.04    10.18  5187.83     0  00:00       10.18
  ARE-054              JUNCTION    11.03    11.15  5187.23     0  00:00       11.15
  ARE-055              JUNCTION    11.47    11.59  5186.23     0  00:00       11.59
  ARE-057              JUNCTION    12.54    12.68  5185.35     0  00:00       12.68
  ARE-115              JUNCTION    17.17    17.42  5187.82     0  00:00       17.42
  ARE-116              JUNCTION    17.34    17.69  5186.46     0  00:00       17.69
  ARE-117              JUNCTION    17.58    17.78  5185.80     0  00:00       17.78
  ARE-118              JUNCTION    12.96    13.13  5180.35     0  00:00       13.13
  ARE-119              JUNCTION     9.80     9.91  5176.60     0  00:00        9.91
  ARE-120              JUNCTION     9.97    10.12  5176.37     0  00:00       10.12
  ARE-121              JUNCTION     7.67     7.79  5172.67     0  00:00        7.79
  ARE-122              JUNCTION     4.90     4.97  5168.79     0  00:00        4.97
  ARE-123              JUNCTION     7.25     7.32  5170.60     0  00:00        7.32
  ARE-124              JUNCTION     5.71     5.80  5168.59     0  00:00        5.80
  ARE-125              JUNCTION     9.78     9.97  5166.05     0  00:00        9.97
  ARE-126              JUNCTION    14.59    14.90  5168.70     0  00:00       14.90
  ARE-127              JUNCTION     9.51     9.70  5159.54     0  00:00        9.70
  ARE-128              JUNCTION     9.32     9.50  5157.41     0  00:00        9.50
  ARE-129              JUNCTION     9.22     9.36  5150.35     0  00:00        9.36
  ARE-130              JUNCTION     9.28     9.43  5146.74     0  00:00        9.43
  ARE-131              JUNCTION     8.91     9.08  5134.69     0  00:00        9.08
  ARE-132              JUNCTION     7.72     7.88  5130.65     0  00:00        7.88
  ARE-133              JUNCTION     7.79     7.95  5127.52     0  00:00        7.95
  ARE-134              JUNCTION     9.33     9.50  5118.82     0  00:00        9.50
  ARE-135              JUNCTION    10.98    11.12  5112.26     0  00:00       11.12
  ARE-136              JUNCTION    12.86    13.05  5111.43     0  00:00       13.05
  ARE-137              JUNCTION    12.84    13.06  5104.90     0  00:00       13.06
  ARE-138              JUNCTION    11.39    11.60  5100.25     0  00:00       11.60
  ARE-139              JUNCTION    11.74    11.98  5096.15     0  00:00       11.98
  ARE-140              JUNCTION    13.82    14.16  5097.53     0  00:00       14.16
  ARW-025              JUNCTION    10.97    11.03  5220.30     0  00:00       11.03
  ARW-026              JUNCTION    10.91    11.01  5219.20     0  00:00       11.01
  ARW-029              JUNCTION    10.87    10.99  5216.80     0  00:00       10.99
  ARW-035              JUNCTION    10.29    10.44  5214.40     0  00:00       10.44
  ARW-036              JUNCTION    10.60    10.75  5214.00     0  00:00       10.75
  ARW-037              JUNCTION     8.80     8.93  5211.10     0  00:00        8.93
  ARW-038              JUNCTION    10.52    10.70  5212.80     0  00:00       10.70
  ARW-039              JUNCTION    10.53    10.68  5209.72     0  00:00       10.68
  CC-1                 JUNCTION    17.91    19.57  5028.84     0  00:02       18.76
  CC-10                JUNCTION    11.09    11.60  5038.50     0  00:02       11.60
  CC-11                JUNCTION    15.39    18.50  5046.30     0  00:02       16.08
  CC-12                JUNCTION    18.48    21.95  5050.45     0  00:01       19.25
  CC-13                JUNCTION    21.04    21.80  5050.80     0  00:01       21.80
  CC-17                JUNCTION    20.79    21.57  5054.70     0  00:01       21.57
  CC-17A               JUNCTION    21.22    22.19  5054.70     0  00:01       22.00
  CC-18                JUNCTION    19.71    20.46  5054.50     0  00:01       20.46
  CC-19                JUNCTION    20.49    21.62  5056.80     0  00:01       21.33
  CC-2                 JUNCTION    17.47    19.93  5030.80     0  00:02       18.32
  CC-20                JUNCTION    21.08    21.95  5058.10     0  00:01       21.95
  CC-21                JUNCTION    20.56    21.45  5058.60     0  00:02       21.45
  CC-26                JUNCTION    13.05    13.66  5062.56     0  00:02       13.66
  CC-26.A              JUNCTION    13.01    14.23  5064.53     0  00:02       13.63
  CC-27                JUNCTION    12.84    15.67  5067.57     0  00:02       13.47
  CC-28                JUNCTION    13.80    14.39  5067.59     0  00:02       14.39
  CC-29                JUNCTION    14.44    15.26  5069.16     0  00:02       15.04
  CC-3                 JUNCTION    16.29    17.98  5032.15     0  00:02       17.08
  CC-30                JUNCTION    14.40    15.00  5069.30     0  00:02       15.00
  CC-31                JUNCTION    11.37    11.80  5070.40     0  00:02       11.80
  CC-32                JUNCTION    11.03    11.50  5071.90     0  00:02       11.50
  CC-33                JUNCTION    10.99    11.48  5075.48     0  00:02       11.48
  CC-34                JUNCTION    26.10    28.85  5079.81     0  00:02       27.16
  CC-35                JUNCTION    10.76    13.61  5082.81     0  00:02       11.26
  CC-35.1              JUNCTION     8.50    12.02  5083.62     0  00:02        8.90
  CC-36                JUNCTION    10.95    11.39  5082.65     0  00:01       11.39
  CC-37                JUNCTION    10.62    11.02  5085.77     0  00:01       11.02
  CC-37.1              JUNCTION     9.54     9.99  5085.89     0  00:01        9.91
  CC-38                JUNCTION    13.04    13.70  5092.30     0  00:00       13.44
  CC-38.1              JUNCTION    12.19    12.51  5093.92     0  00:00       12.51
  CC-39                JUNCTION    11.45    13.26  5098.00     0  00:00       11.77
  CC-4                 JUNCTION    14.64    15.62  5032.95     0  00:02       15.34
  CC-40                JUNCTION     9.76    10.02  5096.90     0  00:00       10.02
  CC-41                JUNCTION    11.17    11.44  5101.24     0  00:00       11.44
  CC-42                JUNCTION    11.04    11.37  5105.75     0  00:00       11.37
  CC-43                JUNCTION     9.22    14.09  5116.44     0  00:00        9.50
  CC-5                 JUNCTION    11.36    11.91  5033.48     0  00:02       11.91
  CC-6                 JUNCTION    12.57    13.12  5036.23     0  00:02       13.12
  CC-7                 JUNCTION    11.24    14.47  5038.94     0  00:02       11.77
  CC-8                 JUNCTION     9.45     9.90  5035.47     0  00:02        9.90
  CC-9                 JUNCTION    10.08    13.55  5039.80     0  00:02       10.58
  CC1-01               JUNCTION     4.23     6.56  5112.75     0  00:02        4.44
  CC1-02               JUNCTION    12.15    12.43  5120.31     0  00:00       12.43
  CC1-03               JUNCTION    12.22    12.52  5134.12     0  00:00       12.52
  CC1-04               JUNCTION    12.88    13.20  5140.55     0  00:00       13.20
  CC1-05               JUNCTION    11.78    12.05  5166.96     0  00:00       12.05
  CC2-00               JUNCTION     4.38     4.40  5108.67     0  00:00        4.40
  CC2-01               JUNCTION     2.46     2.50  5107.61     0  00:00        2.50
  CC2-02               JUNCTION    11.89    12.12  5118.21     0  00:00       12.12
  CC2-03               JUNCTION    12.55    12.83  5138.59     0  00:00       12.83
  CC2-04               JUNCTION     9.87    10.07  5149.71     0  00:00       10.07
  CC2-05               JUNCTION     4.01     4.09  5159.19     0  00:00        4.09
  CC2-06               JUNCTION     9.67     9.88  5171.98     0  00:00        9.88
  CC2-07               JUNCTION    11.72    11.97  5177.17     0  00:00       11.97
  CC2-08               JUNCTION    12.94    13.23  5193.64     0  00:00       13.23
  CC2-09               JUNCTION    11.11    11.30  5207.97     0  00:00       11.30
  CC2-10               JUNCTION    12.21    12.35  5140.19     0  00:00       12.35
  CC2-11               JUNCTION    14.88    15.23  5156.27     0  00:00       15.23
  CC2-12               JUNCTION     7.86     8.04  5150.99     0  00:00        8.04
  CC2-13               JUNCTION     9.61     9.84  5166.47     0  00:00        9.84
  CC2-14               JUNCTION     6.47     6.58  5167.03     0  00:00        6.58
  CC3-01               JUNCTION    10.90    11.13  5155.88     0  00:00       11.13
  CC3-02               JUNCTION    10.47    10.59  5161.58     0  00:00       10.59
  CC3-03               JUNCTION    10.01    10.16  5168.31     0  00:00       10.16
  CC3-04               JUNCTION    12.77    12.97  5191.28     0  00:00       12.97
  CC3-05               JUNCTION    11.82    11.95  5207.65     0  00:00       11.95
  CC4-01               JUNCTION    11.68    11.87  5127.37     0  00:00       11.87
  CC4-02               JUNCTION    12.00    12.15  5133.63     0  00:00       12.15
  CC4-03               JUNCTION    10.95    11.07  5150.30     0  00:00       11.07
  CC5-01               JUNCTION    11.30    11.43  5097.54     0  00:00       11.43
  CC5-02               JUNCTION    12.20    12.34  5110.01     0  00:00       12.34
  CC5-03               JUNCTION    10.06    10.16  5136.75     0  00:00       10.16
  CCM-01               JUNCTION    13.06    13.19  5108.41     0  00:00       13.19
  CCM-02               JUNCTION    11.48    11.66  5110.62     0  00:00       11.66
  CCM-03               JUNCTION    10.53    10.70  5115.26     0  00:00       10.70
  CCM-04               JUNCTION    10.60    10.75  5117.20     0  00:00       10.75
  CCM-06               JUNCTION    11.13    11.28  5120.38     0  00:00       11.28
  CCM-07               JUNCTION    11.30    11.45  5121.79     0  00:00       11.45
  CCM-08               JUNCTION    11.18    11.34  5122.75     0  00:00       11.34
  CCM-09               JUNCTION    10.26    10.44  5123.80     0  00:00       10.44
  CCM-10               JUNCTION    11.70    11.82  5127.83     0  00:00       11.82
  CCM-11               JUNCTION    11.73    11.85  5136.43     0  00:00       11.85
  CCM-13               JUNCTION    11.72    11.85  5145.36     0  00:00       11.85
  CCM-14               JUNCTION    11.79    11.92  5151.26     0  00:00       11.92
  CCM-15               JUNCTION     8.85     8.95  5151.61     0  00:00        8.95
  CFE-012              JUNCTION    11.73    11.90  5103.74     0  00:00       11.90
  CFE-013              JUNCTION    11.77    12.00  5101.54     0  00:00       12.00
  CFE-016              JUNCTION    11.94    12.21  5097.51     0  00:00       12.21
  CFE-017              JUNCTION    11.05    11.30  5095.51     0  00:00       11.30
  CFE-022              JUNCTION     6.94     7.11  5090.40     0  00:00        7.11
  CFE-023              JUNCTION     5.61     5.74  5087.80     0  00:00        5.74
  CFE-023A             JUNCTION     6.66     6.80  5086.50     0  00:00        6.80
  CFW-006              JUNCTION    14.34    14.65  5128.10     0  00:00       14.65
  CFW-007              JUNCTION    15.97    16.34  5127.70     0  00:00       16.34
  CFW-012              JUNCTION    13.20    13.52  5119.60     0  00:00       13.52
  CFW-013              JUNCTION    13.00    13.30  5115.70     0  00:00       13.30
  CFW-016              JUNCTION    10.08    10.32  5111.00     0  00:00       10.32
  CFW-029              JUNCTION     7.18     7.36  5104.80     0  00:00        7.36
  CFW-030              JUNCTION     7.06     7.24  5102.00     0  00:00        7.24
  CFW-031              JUNCTION     7.21     7.38  5100.70     0  00:00        7.38
  CFW-032              JUNCTION    10.59    12.92  5105.00     0  00:00       10.84
  CFW-033              JUNCTION    11.68    14.37  5105.30     0  00:00       11.98
  CFW-048              JUNCTION    10.95    11.11  5118.00     0  00:00       11.11
  CFW-049              JUNCTION    10.34    10.50  5116.81     0  00:00       10.50
  CFW-058              JUNCTION    10.39    10.55  5116.07     0  00:00       10.55
  CFW-059              JUNCTION    10.34    10.51  5115.47     0  00:00       10.51
  CFW-060              JUNCTION    10.32    10.51  5114.12     0  00:00       10.51
  CFW-061              JUNCTION    10.41    10.60  5111.24     0  00:00       10.60
  CFW-062              JUNCTION     9.85    10.00  5109.89     0  00:00       10.00
  CFW-067              JUNCTION    10.12    10.28  5109.83     0  00:00       10.28
  CFW-068              JUNCTION    11.77    11.99  5110.78     0  00:00       11.99
  CFW-069              JUNCTION    11.74    11.99  5109.11     0  00:00       11.99
  CFW-070              JUNCTION    10.71    10.88  5131.38     0  00:00       10.88
  CFW-071              JUNCTION     7.75     7.84  5122.76     0  00:00        7.84
  CFW-073              JUNCTION    10.49    10.63  5123.80     0  00:00       10.63
  CFW-074              JUNCTION     9.43     9.50  5121.00     0  00:00        9.50
  CFW-075              JUNCTION     7.35     7.43  5118.43     0  00:00        7.43
  CL-001               JUNCTION    11.10    11.38  5100.04     0  00:00       11.38
  CL-002               JUNCTION    12.85    13.13  5102.63     0  00:00       13.13
  CL-003               JUNCTION    14.49    14.78  5110.44     0  00:00       14.78
  CL-004               JUNCTION    11.70    12.03  5121.13     0  00:00       12.03
  CL-005               JUNCTION    11.71    12.01  5130.29     0  00:00       12.01
  CL-006               JUNCTION    13.52    13.89  5106.27     0  00:00       13.89
  CL-007               JUNCTION    10.09    10.29  5105.94     0  00:00       10.29
  CL-008               JUNCTION     8.02    12.92  5110.53     0  00:01        8.33
  COM-1                JUNCTION    11.38    11.94  5060.54     0  00:02       11.94
  COM-10               JUNCTION    10.95    11.13  5102.63     0  00:00       11.13
  COM-11               JUNCTION    11.53    11.66  5113.03     0  00:00       11.66
  COM-12               JUNCTION    12.94    13.09  5127.96     0  00:00       13.09
  COM-2                JUNCTION    10.24    10.48  5073.86     0  00:00       10.48
  COM-3                JUNCTION    10.33    10.56  5079.99     0  00:00       10.56
  COM-4                JUNCTION    12.24    12.47  5100.69     0  00:00       12.47
  COM-5                JUNCTION    13.26    13.39  5150.56     0  00:00       13.39
  COM-6                JUNCTION    11.07    11.20  5158.96     0  00:00       11.20
  COM-7                JUNCTION    12.94    13.17  5073.99     0  00:00       13.17
  COM-8                JUNCTION    13.73    13.86  5093.54     0  00:00       13.86
  COM-9                JUNCTION    11.43    12.01  5083.47     0  00:02       12.01
  COM-9A               JUNCTION    11.79    12.37  5079.73     0  00:02       12.37
  CR-001               JUNCTION    15.48    15.75  5014.28     0  00:00       15.75
  CR-002               JUNCTION    13.73    14.05  5016.67     0  00:00       14.05
  CR-003               JUNCTION    12.49    12.79  5027.47     0  00:00       12.79
  CR-004               JUNCTION    11.67    11.87  5041.38     0  00:00       11.87
  CR-005               JUNCTION     9.70     9.90  5050.96     0  00:00        9.90
  CR-007               JUNCTION    13.19    13.34  5036.09     0  00:00       13.34
  CR-008               JUNCTION    14.41    14.61  5042.06     0  00:00       14.61
  CR-009               JUNCTION    14.25    14.45  5048.63     0  00:00       14.45
  CR-010               JUNCTION    14.95    15.15  5052.96     0  00:00       15.15
  CR-011               JUNCTION    14.76    14.97  5058.80     0  00:00       14.97
  CR-012               JUNCTION    14.60    14.82  5064.47     0  00:00       14.82
  CR-013               JUNCTION    12.83    12.98  5071.85     0  00:00       12.98
  CR-015               JUNCTION    13.44    13.63  5018.87     0  00:00       13.63
  CR-016               JUNCTION    14.29    14.45  5026.15     0  00:00       14.45
  CR-017               JUNCTION    13.29    13.41  5028.81     0  00:00       13.41
  CR-018               JUNCTION    12.85    12.99  5030.45     0  00:00       12.99
  CR-019               JUNCTION    11.12    11.23  5031.66     0  00:00       11.23
  CR-020               JUNCTION    10.08    10.20  5033.53     0  00:00       10.20
  CR-021               JUNCTION    13.68    13.86  5040.33     0  00:00       13.86
  CR-022               JUNCTION    15.60    15.75  5043.90     0  00:00       15.75
  CR-023               JUNCTION    11.65    11.80  5033.70     0  00:00       11.80
  CR-024               JUNCTION     9.69     9.81  5037.01     0  00:00        9.81
  CR-025               JUNCTION     9.57     9.69  5041.11     0  00:00        9.69
  CR-026               JUNCTION    11.59    11.77  5045.12     0  00:00       11.77
  CR-027               JUNCTION     9.78     9.94  5058.60     0  00:00        9.94
  CR-028               JUNCTION     9.94    10.05  5070.54     0  00:00       10.05
  CR-030               JUNCTION    13.56    13.72  5002.47     0  00:00       13.72
  CR-031               JUNCTION    15.73    16.04  5019.95     0  00:00       16.04
  CR-032               JUNCTION    12.82    13.03  5025.14     0  00:00       13.03
  CR-040               JUNCTION    13.91    14.33  5014.33     0  00:00       14.33
  CR-041               JUNCTION    27.83    28.27  5028.74     0  00:00       28.27
  CR-042               JUNCTION    10.01    10.11  5039.67     0  00:00       10.11
  CR-043               JUNCTION     9.74     9.88  5047.61     0  00:00        9.88
  CR-044               JUNCTION     8.90     9.05  5052.63     0  00:00        9.05
  CR-045               JUNCTION    11.44    11.61  5063.82     0  00:00       11.61
  CS-2                 JUNCTION    18.14    18.52  5065.20     0  00:00       18.52
  CS-2A                JUNCTION    19.00    19.38  5065.47     0  00:00       19.38
  EH-1                 JUNCTION    14.06    14.19  5146.98     0  00:00       14.19
  EH-2                 JUNCTION    11.79    11.88  5142.72     0  00:00       11.88
  GV-10C               JUNCTION    11.09    11.37  5037.50     0  00:00       11.37
  GV-10F               JUNCTION    11.69    11.93  5076.45     0  00:00       11.93
  GV-11C               JUNCTION     8.91     9.13  5035.84     0  00:00        9.13
  GV-11F               JUNCTION    11.80    12.01  5075.71     0  00:00       12.01
  GV-12C               JUNCTION    10.93    11.18  5038.96     0  00:00       11.18
  GV-12F               JUNCTION    11.76    11.96  5075.06     0  00:00       11.96
  GV-13C               JUNCTION    12.50    12.78  5041.52     0  00:00       12.78
  GV-13F               JUNCTION    11.84    12.05  5071.13     0  00:00       12.05
  GV-14C               JUNCTION    14.05    14.34  5043.77     0  00:00       14.34
  GV-14F               JUNCTION    11.68    11.88  5068.37     0  00:00       11.88
  GV-15C               JUNCTION    14.54    14.82  5044.63     0  00:00       14.82
  GV-15F               JUNCTION    11.98    12.20  5066.94     0  00:00       12.20
  GV-16C               JUNCTION    15.37    15.68  5046.14     0  00:00       15.68
  GV-16F               JUNCTION    11.87    12.06  5061.50     0  00:00       12.06
  GV-17C               JUNCTION    16.88    17.24  5048.19     0  00:00       17.24
  GV-17F               JUNCTION    12.28    12.52  5059.79     0  00:00       12.52
  GV-18C               JUNCTION    16.81    17.19  5048.95     0  00:00       17.19
  GV-19C               JUNCTION    12.65    12.93  5049.42     0  00:00       12.93
  GV-1C                JUNCTION    11.47    11.70  5038.06     0  00:00       11.70
  GV-1C-8              JUNCTION    11.80    11.96  5058.93     0  00:00       11.96
  GV-1F                JUNCTION    11.88    12.04  5106.44     0  00:00       12.04
  GV-1G                JUNCTION    13.48    13.78  5033.57     0  00:00       13.78
  GV-200               JUNCTION     3.78     3.95  5032.85     0  00:02        3.95
  GV-20C               JUNCTION    11.83    12.07  5050.77     0  00:00       12.07
  GV-210               JUNCTION    10.76    11.23  5048.63     0  00:02       11.23
  GV-21C               JUNCTION    14.91    15.26  5057.70     0  00:00       15.26
  GV-220               JUNCTION    13.79    14.39  5075.99     0  00:02       14.39
  GV-22C               JUNCTION    15.29    15.65  5059.00     0  00:23       15.65
  GV-23C               JUNCTION    14.02    14.36  5058.71     0  00:00       14.36
  GV-24C               JUNCTION    13.86    14.19  5060.68     0  00:00       14.19
  GV-2C                JUNCTION    11.84    12.05  5034.39     0  00:00       12.05
  GV-2C-8              JUNCTION    11.84    12.03  5057.60     0  00:00       12.03
  GV-2F                JUNCTION    12.80    13.01  5107.03     0  00:00       13.01
  GV-2G                JUNCTION    13.70    14.02  5033.45     0  00:00       14.02
  GV-3C                JUNCTION    11.97    12.16  5033.91     0  00:00       12.16
  GV-3C-8              JUNCTION    12.43    12.62  5055.31     0  00:00       12.62
  GV-3F                JUNCTION    12.50    12.73  5103.68     0  00:00       12.73
  GV-3G                JUNCTION     8.22     8.46  5025.68     0  00:00        8.46
  GV-4C                JUNCTION    12.17    12.37  5033.18     0  00:00       12.37
  GV-4C-8              JUNCTION    12.42    12.61  5054.69     0  00:00       12.61
  GV-4F                JUNCTION    11.76    11.98  5101.24     0  00:00       11.98
  GV-4G                JUNCTION     8.87     9.16  5023.82     0  00:00        9.16
  GV-5C-8              JUNCTION    11.40    12.09  5053.31     0  00:00       11.66
  GV-5F                JUNCTION    11.68    11.90  5096.26     0  00:00       11.90
  GV-5G                JUNCTION    11.14    12.59  5025.40     0  00:01       11.52
  GV-6C                JUNCTION    10.37    10.78  5034.73     0  00:00       10.68
  GV-6C-8              JUNCTION     9.80    10.02  5050.18     0  00:00       10.02
  GV-6F                JUNCTION    12.05    12.27  5092.53     0  00:00       12.27
  GV-6G                JUNCTION    11.77    12.18  5024.14     0  00:01       12.18
  GV-7C                JUNCTION    10.39    11.14  5035.32     0  00:00       10.72
  GV-7F                JUNCTION    11.88    12.08  5087.65     0  00:00       12.08
  GV-7G                JUNCTION    12.05    13.28  5024.62     0  00:01       12.48
  GV-8C                JUNCTION    10.82    13.03  5037.93     0  00:00       11.16
  GV-8F                JUNCTION    11.84    12.03  5083.56     0  00:00       12.03
  GV-8G                JUNCTION    11.61    12.03  5022.97     0  00:02       12.03
  GV-9C                JUNCTION    11.28    12.45  5038.03     0  00:00       11.59
  GV-9F                JUNCTION    11.76    12.00  5080.81     0  00:00       12.00
  GV-9G                JUNCTION    12.42    13.19  5023.71     0  00:03       12.94
  GV1-01               JUNCTION    10.32    10.40  5105.81     0  00:00       10.40
  GV1-02               JUNCTION     8.94     9.13  5109.65     0  00:00        9.13
  GV1-03               JUNCTION    10.59    10.84  5116.51     0  00:00       10.84
  GV1-04               JUNCTION    10.30    10.54  5127.04     0  00:00       10.54
  GV1-04A              JUNCTION     9.43     9.59  5132.12     0  00:00        9.59
  GV1-05               JUNCTION    11.15    11.40  5118.02     0  00:00       11.40
  GV1-06               JUNCTION     8.91     9.09  5125.99     0  00:00        9.09
  GV2-01               JUNCTION     7.20     9.37  5071.13     0  00:00        7.42
  GV2-02               JUNCTION     7.02     7.14  5080.29     0  00:00        7.14
  GV2-03               JUNCTION     5.20     5.31  5085.24     0  00:00        5.31
  GV2-04               JUNCTION    11.44    11.69  5115.72     0  00:00       11.69
  GV2-05               JUNCTION    11.34    11.60  5130.84     0  00:00       11.60
  GV2-06               JUNCTION     7.43     7.57  5135.70     0  00:00        7.57
  GV2-07               JUNCTION     5.09     5.20  5095.61     0  00:00        5.20
  GV2-08               JUNCTION     6.29     6.43  5108.80     0  00:00        6.43
  GV2-09               JUNCTION    10.44    10.69  5138.09     0  00:00       10.69
  GV2-10               JUNCTION     8.34     9.17  5147.18     0  00:00        8.59
  GV2-11               JUNCTION     9.04     9.17  5155.55     0  00:00        9.17
  GV2-13               JUNCTION    10.67    11.85  5101.85     0  00:09       11.57
  GV2-14               JUNCTION     6.49     9.66  5107.88     0  00:09        7.15
  GV2-15               JUNCTION     6.55     9.96  5111.64     0  00:03        6.99
  GV2-16               JUNCTION     5.57     5.80  5108.80     0  00:01        5.80
  GV2-17               JUNCTION     8.30     8.65  5113.59     0  00:01        8.65
  GV2-18               JUNCTION     7.81     8.06  5118.77     0  00:00        8.06
  GV2-19               JUNCTION     0.42     0.43  5135.27     0  00:32        0.43
  GV2-20               JUNCTION     6.60     8.22  5138.68     0  00:01        6.86
  GV2-21               JUNCTION     8.18     8.44  5151.38     0  00:00        8.44
  GV2-22               JUNCTION    10.64    11.00  5164.21     0  00:01       11.00
  GV2-23               JUNCTION     0.53     0.54  5177.95     0  00:29        0.54
  GV2-24               JUNCTION     7.88     8.15  5130.88     0  00:01        8.15
  GV2-25               JUNCTION     8.86     9.19  5153.32     0  00:01        9.19
  GV2-26               JUNCTION     0.47     0.48  5171.11     0  00:54        0.48
  GV2-27               JUNCTION     8.46     8.78  5112.14     0  00:01        8.78
  GV2-28               JUNCTION    13.02    13.55  5118.54     0  00:01       13.55
  GV2-29               JUNCTION     9.26     9.59  5133.93     0  00:01        9.59
  GV2-30               JUNCTION    11.78    12.16  5167.72     0  00:00       12.16
  GV2-31               JUNCTION     7.63     7.91  5153.09     0  00:01        7.91
  GV2-32               JUNCTION    10.28    10.65  5185.63     0  00:01       10.65
  GV2-33               JUNCTION     9.89    10.29  5200.46     0  00:01       10.29
  GV2-34               JUNCTION     4.96     6.42  5212.92     0  00:02        5.18
  GV2-35               JUNCTION     6.47    15.27  5224.44     0  00:01        6.71
  GV2-36               JUNCTION     1.11     1.14  5212.50     0  00:00        1.14
  GV2-37               JUNCTION     0.48     0.48  5223.85     0  04:55        0.48
  HWY52-001            JUNCTION    12.31    15.83  4958.80     0  00:07       13.39
  HWY52-002            JUNCTION    10.10    10.84  4960.70     0  00:05       10.84
  HWY52-003            JUNCTION     6.76     7.24  4965.82     0  00:06        7.24
  HWY52-004            JUNCTION     3.91     6.01  4974.24     0  00:16        4.31
  HWY52-005            JUNCTION     3.92     5.24  4976.86     0  00:16        4.37
  HWY52-006            JUNCTION     4.85     5.29  4979.04     0  00:09        5.29
  HWY52-007            JUNCTION     1.90     2.02  4985.73     0  00:47        2.02
  HWY52-008            JUNCTION     2.19     2.35  4989.81     0  00:10        2.34
  HWY52-009            JUNCTION    10.10    10.39  5002.79     0  00:00       10.39
  HWY52-AM-1           JUNCTION    12.62    12.93  5008.00     0  00:00       12.93
  HWY52-AM-2           JUNCTION    16.79    19.43  5017.00     0  00:00       17.30
  HWY52-AM-3           JUNCTION    21.34    21.83  5022.00     0  00:00       21.83
  IN-020               JUNCTION    13.51    14.25  5065.88     0  00:03       14.25
  IN-021               JUNCTION    14.94    15.38  5077.60     0  00:00       15.38
  IN-022               JUNCTION    17.25    17.80  5105.42     0  00:00       17.80
  IN-023               JUNCTION    16.16    16.57  5118.41     0  00:00       16.57
  IN-024               JUNCTION    17.33    17.73  5129.76     0  00:00       17.73
  IN-025               JUNCTION    16.11    16.49  5146.16     0  00:00       16.49
  IN-026               JUNCTION    22.31    22.81  5171.00     0  00:00       22.81
  IN-027               JUNCTION    22.10    22.63  5176.68     0  00:00       22.63
  IN-AM-1              JUNCTION    27.98    28.73  5033.00     0  00:00       28.73
  IN-AM-10             JUNCTION    11.68    14.92  5038.00     0  00:02       12.48
  IN-AM-11             JUNCTION    11.94    24.08  5048.16     0  00:02       12.94
  IN-AM-12             JUNCTION    10.87    23.06  5048.10     0  00:03       11.94
  IN-AM-13             JUNCTION     9.77    22.27  5048.35     0  00:05       10.79
  IN-AM-14             JUNCTION     7.88    15.29  5042.39     0  00:08        8.79
  IN-AM-15             JUNCTION     6.26    17.00  5045.00     0  00:08        6.99
  IN-AM-16             JUNCTION     4.51    10.91  5039.91     0  00:09        5.00
  IN-AM-17             JUNCTION     2.69     2.94  5033.00     0  00:09        2.94
  IN-AM-18             JUNCTION     2.72     2.94  5034.00     0  00:07        2.94
  IN-AM-19             JUNCTION     8.07    17.33  5050.39     0  00:05        8.64
  IN-AM-2              JUNCTION    18.74    20.73  5027.00     0  00:01       19.40
  IN-AM-20             JUNCTION    10.78    15.99  5050.03     0  00:05       11.43
  IN-AM-21             JUNCTION    13.60    17.96  5053.00     0  00:02       14.29
  IN-AM-22             JUNCTION    16.33    16.96  5053.00     0  00:01       16.96
  IN-AM-23             JUNCTION    21.46    21.98  5059.00     0  00:00       21.98
  IN-AM-24             JUNCTION    13.59    14.00  5052.00     0  00:00       14.00
  IN-AM-25             JUNCTION    15.67    16.04  5055.00     0  00:00       16.04
  IN-AM-26             JUNCTION    16.77    22.02  5062.00     0  00:01       17.40
  IN-AM-27             JUNCTION    18.05    21.58  5062.56     0  00:01       18.71
  IN-AM-28             JUNCTION    19.54    20.02  5062.00     0  00:00       20.02
  IN-AM-29             JUNCTION    12.57    13.04  5056.00     0  00:01       13.04
  IN-AM-3              JUNCTION     9.27     9.68  5018.00     0  00:02        9.68
  IN-AM-30             JUNCTION    12.56    14.04  5058.00     0  00:01       13.04
  IN-AM-31             JUNCTION    12.71    13.04  5058.00     0  00:00       13.04
  IN-AM-4              JUNCTION     9.99    10.96  5022.00     0  00:02       10.48
  IN-AM-5              JUNCTION    10.56    11.04  5024.00     0  00:02       11.04
  IN-AM-6              JUNCTION    12.54    13.00  5028.00     0  00:01       13.00
  IN-AM-7              JUNCTION    14.42    15.00  5032.00     0  00:01       15.00
  IN-AM-8              JUNCTION    18.19    19.00  5038.00     0  00:00       18.85
  IN-AM-9              JUNCTION    11.48    11.96  5034.00     0  00:01       11.96
  IN1-001              JUNCTION    11.93    12.15  5048.17     0  00:00       12.15
  IN1-002              JUNCTION    12.72    13.13  5055.71     0  00:00       13.13
  IN1-003              JUNCTION    11.16    11.60  5058.90     0  00:01       11.60
  IN1-004              JUNCTION    11.25    11.77  5067.00     0  00:02       11.77
  IN1-005              JUNCTION    13.94    14.56  5078.71     0  00:02       14.56
  IN1-006              JUNCTION     9.83    10.26  5084.68     0  00:02       10.26
  IN1-007              JUNCTION    14.81    15.16  5104.73     0  00:00       15.16
  IN1-008              JUNCTION    10.87    11.11  5109.94     0  00:00       11.11
  IN1-009              JUNCTION    14.35    14.68  5122.74     0  00:00       14.68
  IN1-010              JUNCTION    11.30    11.63  5129.86     0  00:00       11.63
  IN1-011              JUNCTION    10.99    11.32  5139.77     0  00:00       11.32
  IN1-012              JUNCTION    15.35    15.79  5158.01     0  00:00       15.79
  IN1-013              JUNCTION    14.65    15.01  5170.38     0  00:00       15.01
  IN1-014              JUNCTION    12.20    12.30  5179.99     0  00:00       12.30
  IN1-015              JUNCTION    10.33    10.41  5188.78     0  00:00       10.41
  IN1-016              JUNCTION     8.80     8.87  5203.12     0  00:00        8.87
  IN1-017              JUNCTION    15.91    16.15  5231.99     0  00:00       16.15
  IN1-020              JUNCTION    14.68    14.88  5091.34     0  00:00       14.88
  IN1-021              JUNCTION    13.69    14.10  5114.41     0  00:00       14.10
  IN1-022              JUNCTION     9.33     9.43  5116.80     0  00:00        9.43
  IN1-AM-01            JUNCTION     6.00     6.15  5039.14     0  00:00        6.15
  IN2-001              JUNCTION    12.40    12.83  5080.88     0  00:01       12.83
  IN2-002              JUNCTION    10.00    10.21  5085.73     0  00:00       10.21
  IN2-003              JUNCTION     8.13     8.29  5092.75     0  00:00        8.29
  IN2-004              JUNCTION    10.00    10.20  5104.96     0  00:00       10.20
  IN2-005              JUNCTION    10.89    11.14  5116.80     0  00:00       11.14
  IN2-006              JUNCTION     9.67     9.88  5123.92     0  00:00        9.88
  IN2-007              JUNCTION     8.65     8.83  5127.85     0  00:00        8.83
  IN2-008              JUNCTION     7.91     8.04  5133.53     0  00:00        8.04
  IN2-009              JUNCTION    14.51    14.93  5154.43     0  00:00       14.93
  IN2-010              JUNCTION    12.00    12.30  5160.67     0  00:00       12.30
  IN2-011              JUNCTION    15.05    15.48  5135.00     0  00:00       15.48
  IN2-012              JUNCTION    12.68    12.87  5140.36     0  00:00       12.87
  IN2-013              JUNCTION     9.52     9.66  5140.00     0  00:00        9.66
  IN2-014              JUNCTION     7.85     7.96  5153.00     0  00:00        7.96
  IN2-015              JUNCTION     8.46     8.56  5186.29     0  00:00        8.56
  IN2-AM-01            JUNCTION    14.72    15.47  5064.27     0  00:02       15.47
  IN3-001              JUNCTION    15.19    16.04  5083.11     0  00:03       16.04
  IN3-002              JUNCTION    15.27    15.43  5100.43     0  00:00       15.43
  IN4-001              JUNCTION     9.18     9.35  5101.51     0  00:00        9.35
  IN4-002              JUNCTION    14.95    15.20  5117.65     0  00:00       15.20
  IN4-003              JUNCTION    18.28    18.57  5143.83     0  00:00       18.57
  IN4-004              JUNCTION    13.98    14.19  5160.07     0  00:00       14.19
  IN4-005              JUNCTION    16.62    16.80  5181.14     0  00:00       16.80
  IN5-001              JUNCTION    18.71    19.08  5191.96     0  00:00       19.08
  IN5-002              JUNCTION    16.62    16.87  5210.07     0  00:00       16.87
  IN5-003              JUNCTION    18.43    18.69  5219.13     0  00:00       18.69
  IN5-004              JUNCTION    16.94    17.18  5220.77     0  00:00       17.18
  IN5-005              JUNCTION    20.06    20.31  5227.40     0  00:00       20.31
  IN5-006              JUNCTION    18.70    18.95  5228.25     0  00:00       18.95
  IN6-001              JUNCTION    16.55    17.13  5174.74     0  00:01       17.13
  IN6-002              JUNCTION     9.57     9.79  5172.90     0  00:00        9.79
  IN6-003              JUNCTION    11.47    11.70  5178.25     0  00:00       11.70
  IN6-004              JUNCTION    15.55    15.78  5186.88     0  00:00       15.78
  IN6-005              JUNCTION    17.36    17.69  5191.90     0  00:00       17.69
  IN6-006              JUNCTION    16.74    17.02  5200.79     0  00:00       17.02
  IN6-007              JUNCTION    17.65    17.93  5214.60     0  00:00       17.93
  IN6-008              JUNCTION    12.77    13.05  5238.65     0  00:00       13.05
  IN6-009              JUNCTION    13.72    14.09  5222.21     0  00:00       14.09
  IN6-013              JUNCTION    13.71    13.86  5226.97     0  00:00       13.86
  IN6-014              JUNCTION     0.00     0.00  5228.12     0  00:00        0.00
  IN6-015              JUNCTION     0.00     0.00  5248.12     0  00:00        0.00
  JR-001               JUNCTION     9.76    10.00  5014.00     0  00:00       10.00
  JR-002               JUNCTION     9.77    10.00  5031.00     0  00:00       10.00
  JR-003               JUNCTION    11.73    12.00  5037.00     0  00:00       12.00
  JR-004               JUNCTION     7.79     8.00  5040.00     0  00:00        8.00
  JR-005               JUNCTION     9.81    10.00  5061.00     0  00:00       10.00
  JR-006               JUNCTION     9.81    10.00  5076.00     0  00:00       10.00
  JR-007               JUNCTION     9.86    10.00  5115.00     0  00:00       10.00
  KF-010               JUNCTION    10.73    10.80  4998.83     0  00:00       10.80
  KF-011               JUNCTION    10.60    10.75  4998.32     0  00:00       10.75
  KF-012               JUNCTION    10.33    10.50  4997.81     0  00:00       10.50
  KF-020               JUNCTION    10.83    11.05  4997.59     0  00:00       11.05
  KF-023               JUNCTION    11.56    11.84  4997.78     0  00:00       11.84
  KF-026               JUNCTION    11.17    11.45  4996.81     0  00:00       11.45
  KF-028               JUNCTION    12.95    13.26  4997.60     0  00:00       13.26
  KF-029               JUNCTION    12.65    12.91  4996.60     0  00:00       12.91
  KF-030               JUNCTION    12.90    13.15  4996.47     0  00:00       13.15
  KF-031               JUNCTION    13.60    13.86  4996.79     0  00:00       13.86
  KF-048               JUNCTION    13.77    14.10  4997.42     0  00:00       14.10
  KF-057               JUNCTION    14.79    15.16  4997.37     0  00:00       15.16
  KF-060               JUNCTION    14.19    14.56  4995.93     0  00:00       14.56
  KF-061               JUNCTION    13.31    13.64  4994.57     0  00:00       13.64
  KF-062               JUNCTION    11.92    12.20  4992.54     0  00:00       12.20
  KF-063               JUNCTION    10.29    10.48  4990.28     0  00:00       10.48
  KF-064               JUNCTION    10.67    10.76  4990.24     0  00:00       10.76
  KF-079               JUNCTION     9.83     9.88  4989.00     0  00:00        9.88
  KF-100               JUNCTION     8.18     8.34  4987.18     0  00:00        8.34
  KF-101               JUNCTION    12.02    12.31  4990.79     0  00:00       12.31
  KF-102               JUNCTION    12.49    12.80  4991.15     0  00:00       12.80
  KF-103               JUNCTION     8.87    11.19  4989.22     0  00:02        9.32
  KF-104               JUNCTION     3.25     3.50  4977.82     0  00:06        3.50
  KF-110               JUNCTION     2.38     3.40  4988.21     0  00:03        2.53
  KF-LS                JUNCTION    14.34    14.46  4993.46     0  00:00       14.46
  LWP-001              JUNCTION    10.59    10.79  5095.25     0  00:00       10.79
  LWP-002              JUNCTION    17.87    18.05  5101.55     0  00:00       18.05
  MH76                 JUNCTION     7.94     9.47  4938.21     0  00:09        8.66
  MH_73                JUNCTION     9.88    10.83  4941.22     0  00:09       10.83
  MS-001               JUNCTION     5.37     5.50  5090.00     0  00:00        5.50
  MS-002               JUNCTION     9.71    10.00  5110.00     0  00:00       10.00
  MS-003               JUNCTION     9.75    10.00  5138.00     0  00:00       10.00
  MS-004               JUNCTION     9.76    10.00  5151.00     0  00:00       10.00
  MS-005               JUNCTION     9.77    10.00  5169.00     0  00:00       10.00
  MS-006               JUNCTION    10.52    10.83  5180.19     0  00:00       10.83
  MS-007               JUNCTION    11.49    11.75  5201.41     0  00:00       11.75
  MS-008               JUNCTION    22.34    22.90  5130.84     0  00:00       22.90
  MS-009               JUNCTION    54.59    56.01  5175.43     0  00:00       56.01
  MS-010               JUNCTION     8.47     8.63  5094.16     0  00:00        8.63
  MS-011               JUNCTION     9.31     9.54  5107.19     0  00:00        9.54
  MS-012               JUNCTION    11.96    12.25  5159.39     0  00:00       12.25
  MSF-010              JUNCTION    12.92    13.18  5139.23     0  00:00       13.18
  MSF-054              JUNCTION    15.66    16.02  5132.54     0  00:00       16.02
  MSF-055              JUNCTION    16.67    17.00  5132.54     0  00:00       17.00
  MSF-056              JUNCTION    16.83    17.20  5142.00     0  00:00       17.20
  MSF-057              JUNCTION    19.30    19.76  5142.56     0  00:00       19.76
  MSF-058              JUNCTION    13.87    14.20  5135.04     0  00:00       14.20
  MSF-059              JUNCTION    15.31    15.60  5134.64     0  00:00       15.60
  NE-001               JUNCTION     4.90     5.00  4962.72     0  00:00        5.00
  NR-001               JUNCTION    17.54    20.31  5049.31     0  00:03       18.67
  NR-002               JUNCTION    12.62    13.24  5065.92     0  00:02       13.24
  NR-003               JUNCTION    11.69    11.98  5094.75     0  00:00       11.98
  NR-004               JUNCTION    10.25    10.46  5066.87     0  00:00       10.46
  NR-03A               JUNCTION     4.80     8.90  5098.63     0  00:02        5.02
  NR-046               JUNCTION    15.64    16.28  5013.78     0  00:01       16.28
  NR-047               JUNCTION    14.76    15.31  5012.11     0  00:01       15.31
  NR-048               JUNCTION    11.48    13.03  5008.93     0  00:00       11.91
  NR-049               JUNCTION     6.66     8.96  5003.96     0  00:01        6.96
  NR-46A               JUNCTION    10.57    10.75  5040.56     0  00:00       10.75
  NR-46B               JUNCTION     9.42     9.57  5085.08     0  00:00        9.57
  NWRF                 JUNCTION    14.07    15.28  4953.16     0  00:09       15.28
  OG-001               JUNCTION    12.71    13.98  5161.82     0  00:00       13.11
  OG-002               JUNCTION    12.81    13.18  5156.82     0  00:00       13.18
  OG-003               JUNCTION    12.76    13.12  5156.12     0  00:00       13.12
  OG-004               JUNCTION    11.76    12.06  5149.57     0  00:00       12.06
  OG-005               JUNCTION    10.98    11.24  5147.66     0  00:00       11.24
  OG-017               JUNCTION    11.35    11.62  5147.38     0  00:00       11.62
  OG-018               JUNCTION    11.12    11.39  5145.61     0  00:00       11.39
  OG-025               JUNCTION    11.72    12.00  5144.91     0  00:00       12.00
  OG-063               JUNCTION    10.37    10.50  5149.00     0  00:00       10.50
  OG-064               JUNCTION    10.71    10.87  5149.00     0  00:00       10.87
  OG-065               JUNCTION    11.01    11.19  5149.00     0  00:00       11.19
  OG-066               JUNCTION    11.10    11.32  5149.00     0  00:00       11.32
  OG-067               JUNCTION    10.50    10.71  5148.00     0  00:00       10.71
  OG-068               JUNCTION     8.89     9.08  5146.00     0  00:00        9.08
  OG-069               JUNCTION    12.22    12.48  5148.26     0  00:00       12.48
  OG-070               JUNCTION    11.77    11.98  5147.46     0  00:00       11.98
  OG-071               JUNCTION    11.56    11.75  5146.37     0  00:00       11.75
  OG-072               JUNCTION    10.75    10.94  5145.36     0  00:00       10.94
  OG-073               JUNCTION    11.63    12.04  5145.70     0  00:00       11.84
  OG-074               JUNCTION     8.90     9.08  5141.58     0  00:00        9.08
  OG-075               JUNCTION     9.81    10.05  5141.65     0  00:00       10.05
  OG-076               JUNCTION    10.99    12.24  5142.59     0  00:00       11.28
  OG-077               JUNCTION     9.80    10.05  5138.54     0  00:00       10.05
  OG-090               JUNCTION    11.97    12.25  5153.52     0  00:00       12.25
  OG-091               JUNCTION    11.68    11.96  5155.23     0  00:00       11.96
  OG-092               JUNCTION     8.76     8.97  5154.39     0  00:00        8.97
  OG-093               JUNCTION    11.79    12.07  5159.68     0  00:00       12.07
  OG-094               JUNCTION    11.37    11.64  5164.17     0  00:00       11.64
  OG-095               JUNCTION    11.25    11.51  5169.47     0  00:00       11.51
  OG-096               JUNCTION    13.73    13.96  5174.41     0  00:00       13.96
  OG-100               JUNCTION    11.88    12.12  5185.30     0  00:00       12.12
  OG-101               JUNCTION    11.38    11.68  5190.75     0  00:00       11.68
  OG-102               JUNCTION    12.17    12.46  5200.66     0  00:00       12.46
  OG-103               JUNCTION    12.25    12.57  5209.94     0  00:00       12.57
  OG-104               JUNCTION     9.27     9.51  5215.55     0  00:00        9.51
  OG-105               JUNCTION    10.23    10.41  5221.07     0  00:00       10.41
  OS-1                 JUNCTION     9.86    10.11  5046.71     0  00:00       10.11
  OS-2                 JUNCTION     9.70     9.96  5049.07     0  00:00        9.96
  OS-3                 JUNCTION     9.64     9.91  5051.60     0  00:00        9.91
  OS-4                 JUNCTION    14.80    15.20  5058.66     0  00:00       15.20
  OS-5                 JUNCTION    17.53    18.54  5062.88     0  00:00       17.98
  OS-6                 JUNCTION    18.07    18.51  5064.00     0  00:00       18.51
  OT-018               JUNCTION    11.62    11.70  5032.10     0  00:00       11.70
  OT-023               JUNCTION     6.62     6.67  5020.87     0  00:00        6.67
  OT-028               JUNCTION     5.13     5.17  5018.70     0  00:00        5.17
  OT-033               JUNCTION     5.43     5.50  5017.31     0  00:00        5.50
  OT-048               JUNCTION     6.01     6.12  5016.12     0  00:00        6.12
  OT-049               JUNCTION     5.73     5.85  5014.22     0  00:00        5.85
  OT-050               JUNCTION     4.06     4.18  5010.52     0  00:00        4.18
  OT-061               JUNCTION     8.75     8.88  5025.38     0  00:00        8.88
  OT-063               JUNCTION     5.15     5.22  5020.35     0  00:00        5.22
  OT-066               JUNCTION     6.93     7.04  5020.97     0  00:00        7.04
  OT-070               JUNCTION     5.48     5.57  5018.80     0  00:00        5.57
  OT-074               JUNCTION     4.36     4.44  5014.64     0  00:00        4.44
  OT-078               JUNCTION     4.19     4.29  5010.42     0  00:00        4.29
  OT-079               JUNCTION     5.86     6.03  5010.75     0  00:00        6.03
  OT-080               JUNCTION     7.23     7.41  5010.41     0  00:00        7.41
  OT-083               JUNCTION    13.24    13.51  5015.00     0  00:00       13.51
  OT-084               JUNCTION     7.77     7.96  5009.00     0  00:00        7.96
  OT-085               JUNCTION     7.28     7.47  5008.06     0  00:00        7.47
  OT-086               JUNCTION     2.28     2.43  5000.67     0  00:25        2.43
  OT-087               JUNCTION    11.03    11.32  5043.77     0  00:00       11.32
  OT-088               JUNCTION    10.43    10.72  5039.17     0  00:00       10.72
  OT-089               JUNCTION    10.46    10.74  5038.06     0  00:00       10.74
  OT-090               JUNCTION    11.68    11.95  5037.90     0  00:00       11.95
  OT-091               JUNCTION    11.13    13.48  5032.93     0  00:01       11.52
  OT-092               JUNCTION     9.41     9.77  5023.16     0  00:01        9.77
  OT-093               JUNCTION    10.99    12.10  5024.31     0  00:02       11.48
  OT-094               JUNCTION    12.14    13.20  5024.30     0  00:02       12.74
  OT-096               JUNCTION    17.99    19.58  5024.73     0  00:02       18.94
  OT-097               JUNCTION    18.39    19.50  5023.70     0  00:04       19.50
  OT-098               JUNCTION    18.13    19.80  5023.30     0  00:04       19.37
  OT-099               JUNCTION    17.42    19.80  5022.60     0  00:03       18.80
  OT-100               JUNCTION    16.23    19.45  5021.85     0  00:04       17.59
  OT-101               JUNCTION    16.32    17.70  5019.20     0  00:04       17.70
  OT-102               JUNCTION    15.67    16.70  5017.20     0  00:04       16.70
  OT-103               JUNCTION    16.09    21.00  5020.40     0  00:04       17.85
  OT-104               JUNCTION    15.57    21.80  5020.40     0  00:02       16.89
  SAMH-1               JUNCTION    15.23    15.91  5025.14     0  00:02       15.91
  SAMH-10              JUNCTION    11.12    11.42  5072.44     0  00:00       11.42
  SAMH-100             JUNCTION    11.52    11.81  5146.69     0  00:00       11.81
  SAMH-101             JUNCTION     9.96    10.22  5174.28     0  00:00       10.22
  SAMH-102             JUNCTION    11.78    12.04  5200.76     0  00:00       12.04
  SAMH-103             JUNCTION    11.49    11.66  5207.12     0  00:00       11.66
  SAMH-104             JUNCTION    13.38    13.64  5215.85     0  00:00       13.64
  SAMH-105             JUNCTION    12.51    12.77  5161.68     0  00:00       12.77
  SAMH-106             JUNCTION    12.31    12.58  5186.81     0  00:00       12.58
  SAMH-107             JUNCTION     9.62     9.73  5206.17     0  00:00        9.73
  SAMH-11              JUNCTION     8.74     8.95  5079.87     0  00:00        8.95
  SAMH-110             JUNCTION    13.79    13.97  5143.21     0  00:00       13.97
  SAMH-111             JUNCTION     8.55     8.68  5169.46     0  00:00        8.68
  SAMH-112             JUNCTION     8.37     8.47  5188.36     0  00:00        8.47
  SAMH-113             JUNCTION    10.99    11.10  5199.48     0  00:00       11.10
  SAMH-12              JUNCTION     7.91     8.06  5088.57     0  00:00        8.06
  SAMH-13              JUNCTION    12.80    13.06  5106.95     0  00:00       13.06
  SAMH-14              JUNCTION    14.67    14.92  5111.06     0  00:00       14.92
  SAMH-15              JUNCTION    14.84    15.09  5113.54     0  00:00       15.09
  SAMH-16              JUNCTION    20.94    21.35  5122.12     0  00:00       21.35
  SAMH-17              JUNCTION    19.34    19.75  5122.23     0  00:00       19.75
  SAMH-18              JUNCTION    17.68    18.07  5122.23     0  00:00       18.07
  SAMH-19              JUNCTION    14.61    15.03  5121.09     0  00:00       15.03
  SAMH-1G              JUNCTION    16.63    17.44  5023.78     0  00:04       17.44
  SAMH-2               JUNCTION    14.82    15.52  5036.95     0  00:02       15.52
  SAMH-20              JUNCTION    12.15    12.52  5120.36     0  00:00       12.52
  SAMH-21              JUNCTION     7.62     7.86  5117.75     0  00:01        7.86
  SAMH-22              JUNCTION     7.40     7.63  5119.12     0  00:00        7.63
  SAMH-23              JUNCTION     6.41     6.60  5119.59     0  00:00        6.60
  SAMH-24              JUNCTION     7.63     7.85  5123.52     0  00:00        7.85
  SAMH-25              JUNCTION     6.81     7.00  5127.13     0  00:00        7.00
  SAMH-26              JUNCTION     7.33     7.51  5131.77     0  00:00        7.51
  SAMH-27              JUNCTION     8.84     9.05  5135.09     0  00:00        9.05
  SAMH-28              JUNCTION     9.85    10.10  5137.16     0  00:00       10.10
  SAMH-3               JUNCTION     5.84    14.38  5046.18     0  00:03        6.14
  SAMH-4               JUNCTION     6.52     9.30  5043.12     0  00:03        6.81
  SAMH-5               JUNCTION     7.54     9.37  5045.37     0  00:01        7.84
  SAMH-6               JUNCTION     7.77     8.00  5047.20     0  00:00        8.00
  SAMH-8               JUNCTION    11.81    12.16  5061.57     0  00:00       12.16
  SAMH-9               JUNCTION    10.03    10.32  5063.02     0  00:00       10.32
  SW-040               JUNCTION    10.04    10.15  5087.70     0  00:00       10.15
  SW-041               JUNCTION     8.17     8.29  5081.50     0  00:00        8.29
  SW-042               JUNCTION     9.14     9.39  5078.30     0  00:00        9.39
  SW-043               JUNCTION    10.98    11.26  5078.60     0  00:00       11.26
  SW-044               JUNCTION    12.19    12.49  5078.07     0  00:37       12.49
  SW-045               JUNCTION    10.50    10.76  5075.60     0  00:00       10.76
  SW-046               JUNCTION     6.96     7.14  5071.00     0  00:00        7.14
  SW-047               JUNCTION     6.11     6.30  5068.40     0  00:00        6.30
  SW-048               JUNCTION     8.66     9.56  5069.80     0  00:00        8.91
  SW-049               JUNCTION     9.08     9.54  5068.70     0  00:00        9.32
  SW-055               JUNCTION     8.81     9.03  5045.12     0  00:00        9.03
  SW-056               JUNCTION    14.95    15.21  5050.21     0  00:00       15.21
  TG-001               JUNCTION     8.40     8.55  4967.62     0  00:00        8.55
  TG-002               JUNCTION     9.90    10.14  4978.94     0  00:00       10.14
  TG-003               JUNCTION    14.61    14.74  5030.45     0  00:00       14.74
  TG-004               JUNCTION    11.68    11.77  5048.69     0  00:00       11.77
  TG-005               JUNCTION     8.54     9.02  4990.33     0  00:03        9.02
  TG-006               JUNCTION     5.09     5.33  4999.97     0  00:02        5.33
  TG-007               JUNCTION     7.37     7.76  5016.05     0  00:03        7.76
  TG-008               JUNCTION     8.38    10.05  5046.49     0  00:02        8.76
  TG-009               JUNCTION     7.60     7.85  5044.95     0  00:00        7.85
  TG-010               JUNCTION     4.96     5.11  5043.21     0  00:00        5.11
  TG-011               JUNCTION     3.65     3.77  5044.20     0  00:01        3.77
  TG-012               JUNCTION     9.80    14.44  5060.86     0  00:01       10.16
  TG-013               JUNCTION     8.19     8.48  5056.70     0  00:01        8.48
  TG-014               JUNCTION     6.15     6.38  5056.01     0  00:01        6.38
  TG-015               JUNCTION     9.74    13.45  5066.24     0  00:01       10.08
  TG-016               JUNCTION     6.80     6.96  5064.90     0  00:00        6.96
  TG-017               JUNCTION     8.84     9.03  5069.39     0  00:00        9.03
  TG-018               JUNCTION     7.32     7.47  5069.00     0  00:00        7.47
  TG-019               JUNCTION    10.49    10.71  5074.18     0  00:00       10.71
  TG-020               JUNCTION    12.46    12.70  5077.96     0  00:00       12.70
  TG-021               JUNCTION    11.80    11.99  5081.27     0  00:00       11.99
  TG-022               JUNCTION    10.68    10.84  5082.88     0  00:00       10.84
  TG-023               JUNCTION    10.14    10.30  5085.08     0  00:00       10.30
  TG-024               JUNCTION    11.85    12.04  5090.88     0  00:00       12.04
  TG-025               JUNCTION     8.74     8.85  5091.57     0  00:00        8.85
  TG-026               JUNCTION    11.67    11.77  5099.28     0  00:00       11.77
  TG-027               JUNCTION    11.83    11.95  5105.38     0  00:00       11.95
  TG-028               JUNCTION    12.33    12.46  5115.10     0  00:00       12.46
  TG-029               JUNCTION    13.09    13.27  5099.38     0  00:00       13.27
  TG-030               JUNCTION    11.92    12.10  5101.91     0  00:00       12.10
  TG-031               JUNCTION     9.52     9.66  5109.19     0  00:00        9.66
  TG-032               JUNCTION    11.52    11.69  5117.52     0  00:00       11.69
  TG-033               JUNCTION    11.15    11.48  5131.20     0  00:00       11.48
  TG-034               JUNCTION     7.78     8.01  5063.75     0  00:00        8.01
  TG-035               JUNCTION     8.94     9.18  5068.21     0  00:00        9.18
  TG-036               JUNCTION    12.30    12.61  5076.91     0  00:00       12.61
  TG-037               JUNCTION    13.26    13.39  5083.21     0  00:00       13.39
  TG-038               JUNCTION    13.43    13.57  5090.29     0  00:00       13.57
  TG-039               JUNCTION    15.71    15.89  5095.28     0  00:00       15.89
  TG-040               JUNCTION    18.34    18.58  5099.94     0  00:00       18.58
  TG-041               JUNCTION     7.23     7.32  5090.55     0  00:00        7.32
  TG-042               JUNCTION     3.50     3.55  5088.85     0  00:00        3.55
  TG-043               JUNCTION     0.02     0.03  5088.86     0  00:09        0.03
  VP-01                JUNCTION     6.98     7.18  5038.69     0  00:00        7.18
  VP-02                JUNCTION     8.54     8.68  5041.54     0  00:00        8.68
  VP-03                JUNCTION    12.11    12.31  5056.23     0  00:00       12.31
  VP-04                JUNCTION    13.04    13.25  5058.66     0  00:00       13.25
  VP-05                JUNCTION     7.57     7.70  5054.14     0  00:00        7.70
  VP-06                JUNCTION    14.56    14.82  5066.00     0  00:00       14.82
  VP-07                JUNCTION    17.93    18.25  5074.14     0  00:00       18.25
  VP-08                JUNCTION    16.74    17.03  5082.74     0  00:00       17.03
  VP-09                JUNCTION    15.16    15.42  5088.90     0  00:00       15.42
  VP-10                JUNCTION    18.93    19.26  5094.00     0  00:00       19.26
  VP-11                JUNCTION    13.16    13.35  5089.39     0  00:00       13.35
  VP-12                JUNCTION    11.61    11.74  5088.54     0  00:00       11.74
  VP-13                JUNCTION    11.23    11.36  5088.48     0  00:00       11.36
  VP-14                JUNCTION    11.19    11.36  5088.99     0  00:00       11.36
  VP-15                JUNCTION    11.79    11.99  5091.08     0  00:00       11.99
  VP-16                JUNCTION    11.48    11.68  5097.17     0  00:00       11.68
  VP-20                JUNCTION    14.07    14.36  5092.20     0  00:00       14.36
  VP-21                JUNCTION    11.02    11.20  5091.60     0  00:00       11.20
  VP-23                JUNCTION    11.22    11.40  5093.90     0  00:00       11.40
  VP-24                JUNCTION    11.33    11.50  5094.70     0  00:00       11.50
  VP-25                JUNCTION    11.32    11.50  5095.70     0  00:00       11.50
  VP-26                JUNCTION    10.92    11.10  5096.20     0  00:00       11.10
  VP-27                JUNCTION    10.81    11.02  5097.90     0  00:00       11.02
  VP-28                JUNCTION    10.98    11.20  5104.10     0  00:00       11.20
  VP-29                JUNCTION    11.63    11.81  5105.61     0  00:00       11.81
  VP1-100              JUNCTION     9.03     9.23  5104.14     0  00:00        9.23
  VP1-101              JUNCTION    12.75    13.08  5123.43     0  00:00       13.08
  VP1-102              JUNCTION    11.72    11.94  5126.35     0  00:00       11.94
  VP1-103              JUNCTION    12.37    12.66  5116.70     0  00:00       12.66
  VP1-104              JUNCTION    12.93    13.24  5127.92     0  00:00       13.24
  VP1-105              JUNCTION    14.36    14.68  5140.42     0  00:00       14.68
  VR-A1A               JUNCTION     9.45     9.60  5113.66     0  00:00        9.60
  VR-A4                JUNCTION    15.03    15.30  5121.08     0  00:00       15.30
  VR-A5                JUNCTION    10.11    10.30  5117.55     0  00:00       10.30
  VR-A6                JUNCTION     9.90    10.10  5118.85     0  00:00       10.10
  VR-A7                JUNCTION     8.82     9.00  5123.12     0  00:00        9.00
  VR-A8                JUNCTION    15.55    15.71  5131.64     0  00:00       15.71
  VR-A9                JUNCTION    10.96    11.11  5135.54     0  00:00       11.11
  VR-B1                JUNCTION    12.89    13.10  5134.73     0  00:00       13.10
  VR-B1A               JUNCTION    11.74    11.90  5134.66     0  00:00       11.90
  VR-B2                JUNCTION    17.74    18.00  5141.99     0  00:00       18.00
  VR-B3                JUNCTION    12.74    12.90  5138.55     0  00:00       12.90
  VR-B4                JUNCTION     9.29     9.40  5142.55     0  00:00        9.40
  VR-B5                JUNCTION    12.14    12.30  5149.70     0  00:00       12.30
  VR-B6                JUNCTION    10.75    10.90  5153.06     0  00:00       10.90
  VR-B7                JUNCTION     9.83    10.00  5153.47     0  00:00       10.00
  VR-B7B               JUNCTION    13.79    13.90  5173.41     0  00:00       13.90
  VR-C1                JUNCTION    13.72    13.90  5102.50     0  00:00       13.90
  VR-C10               JUNCTION    12.15    12.25  5113.29     0  00:00       12.25
  VR-C11               JUNCTION    12.29    12.40  5116.57     0  00:00       12.40
  VR-C12               JUNCTION    12.20    12.35  5119.34     0  00:00       12.35
  VR-C13               JUNCTION    12.18    12.35  5125.68     0  00:00       12.35
  VR-C14               JUNCTION    13.02    13.20  5136.18     0  00:00       13.20
  VR-C15               JUNCTION    15.47    15.70  5142.74     0  00:00       15.70
  VR-C16               JUNCTION    18.44    18.70  5153.37     0  00:00       18.70
  VR-C17               JUNCTION    20.12    20.40  5157.76     0  00:00       20.40
  VR-C18               JUNCTION    14.10    14.20  5154.05     0  00:00       14.20
  VR-C19               JUNCTION    18.11    18.30  5159.43     0  00:00       18.30
  VR-C1A               JUNCTION    13.52    13.70  5098.83     0  00:00       13.70
  VR-C2                JUNCTION    17.54    17.70  5110.28     0  00:00       17.70
  VR-C20               JUNCTION    14.06    14.20  5158.72     0  00:00       14.20
  VR-C3                JUNCTION    18.34    18.50  5112.26     0  00:00       18.50
  VR-C4                JUNCTION    22.07    22.27  5116.91     0  00:00       22.27
  VR-C5                JUNCTION    23.93    24.15  5119.54     0  00:00       24.15
  VR-C6                JUNCTION    19.23    19.40  5115.62     0  00:00       19.40
  VR-C7                JUNCTION    13.69    13.80  5110.89     0  00:00       13.80
  VR-C8                JUNCTION    10.71    10.80  5108.49     0  00:00       10.80
  VR-C9                JUNCTION    12.00    12.20  5111.14     0  00:00       12.15
  WF-001               JUNCTION     4.89     6.17  4999.26     0  00:02        5.14
  WF-002               JUNCTION     6.64     8.60  5001.90     0  00:02        6.97
  WF-003               JUNCTION     8.20    12.99  5006.74     0  00:02        8.59
  WF-004               JUNCTION     9.01    14.87  5009.00     0  00:02        9.40
  WF-005               JUNCTION     9.00     9.35  5003.90     0  00:01        9.35
  WF-006               JUNCTION    10.33    13.14  5008.04     0  00:01       10.73
  WF-007               JUNCTION    11.58    11.97  5007.20     0  00:01       11.97
  WF-008               JUNCTION    12.68    14.29  5009.70     0  00:00       13.06
  WF-009               JUNCTION    14.04    14.41  5010.00     0  00:00       14.41
  WF-010               JUNCTION    15.77    16.02  5012.00     0  00:00       16.02
  WF-011               JUNCTION    14.25    17.52  5014.00     0  00:01       14.87
  WF-012               JUNCTION    12.81    18.02  5015.00     0  00:02       13.56
  WF-013               JUNCTION    11.55    17.52  5015.00     0  00:05       12.34
  WF-014               JUNCTION    10.32    17.57  5015.55     0  00:06       11.08
  WF-015               JUNCTION     9.31    17.52  5016.00     0  00:05        9.99
  WF-016               JUNCTION     8.31    14.07  5013.05     0  00:05        8.89
  WF-017               JUNCTION     7.60    10.95  5010.21     0  00:05        8.08
  WF-018               JUNCTION     7.22     7.61  5007.00     0  00:03        7.61
  WF-019               JUNCTION     7.78     8.11  5008.00     0  00:01        8.11
  WF-020               JUNCTION     8.31     8.61  5009.00     0  00:01        8.61
  WF-021               JUNCTION     9.11     9.40  5010.00     0  00:00        9.40
  WF-021A              JUNCTION     9.74    10.21  5011.00     0  00:00       10.05
  WF-022               JUNCTION    10.62    10.91  5012.00     0  00:00       10.91
  WF-023               JUNCTION    10.16    10.60  5012.00     0  00:01       10.60
  WF-024               JUNCTION     9.66    10.13  5012.00     0  00:02       10.13
  WF-025               JUNCTION    11.05    11.67  5014.00     0  00:03       11.67
  WF-026               JUNCTION    11.35    12.21  5014.99     0  00:04       12.21
  WF-027               JUNCTION    11.69    13.72  5017.00     0  00:04       13.16
  WF-028               JUNCTION    12.13    13.62  5017.40     0  00:03       13.07
  WF-029               JUNCTION    12.25    12.87  5017.00     0  00:02       12.87
  WF-030               JUNCTION    12.81    13.84  5019.00     0  00:02       13.46
  WF-031               JUNCTION    12.45    13.41  5019.44     0  00:02       13.01
  WF-032               JUNCTION    12.17    12.68  5019.00     0  00:02       12.68
  WF-033               JUNCTION    11.02    11.48  5019.00     0  00:02       11.48
  WF-034               JUNCTION    12.93    13.48  5022.00     0  00:02       13.48
  WF-035               JUNCTION    14.30    14.90  5024.00     0  00:02       14.90
  WF-036               JUNCTION    13.45    14.00  5027.00     0  00:01       14.00
  WF-037               JUNCTION    12.74    13.23  5028.00     0  00:01       13.23
  WF-038               JUNCTION    14.37    14.87  5030.00     0  00:01       14.87
  WF-039               JUNCTION    14.34    15.40  5030.86     0  00:01       14.86
  WF-040               JUNCTION    13.10    13.60  5030.00     0  00:01       13.60
  WF-041               JUNCTION    12.60    13.14  5030.50     0  00:01       13.09
  WF-042               JUNCTION    11.26    11.67  5030.00     0  00:01       11.67
  WF-043               JUNCTION    11.14    11.54  5030.00     0  00:01       11.54
  WF-044               JUNCTION    13.40    13.90  5033.19     0  00:01       13.90
  WF-045               JUNCTION    14.83    15.35  5035.35     0  00:01       15.35
  WF-046               JUNCTION    14.04    14.57  5046.18     0  00:01       14.57
  WF-047               JUNCTION    13.00    13.51  5053.22     0  00:01       13.51
  WF-048               JUNCTION    12.77    13.30  5059.31     0  00:02       13.30
  WF-049               JUNCTION    12.66    13.20  5060.17     0  00:02       13.20
  WF-051               JUNCTION     9.24     9.64  5063.00     0  00:02        9.64
  WF-052               JUNCTION    10.63    11.53  5066.31     0  00:02       11.08
  WF-053               JUNCTION    10.77    11.22  5069.59     0  00:01       11.22
  WF-054               JUNCTION    12.26    12.75  5075.22     0  00:01       12.75
  WF-055               JUNCTION    12.20    12.67  5081.00     0  00:01       12.67
  WF-056               JUNCTION    12.86    13.25  5087.00     0  00:00       13.25
  WF-057               JUNCTION    12.85    13.21  5091.00     0  00:00       13.21
  WF-058               JUNCTION    12.92    13.25  5094.00     0  00:00       13.25
  WRF-000              JUNCTION     3.89     4.11  4994.56     0  00:25        4.11
  WRF-001              JUNCTION     3.91     4.23  4994.22     0  00:04        4.19
  WRF-002              JUNCTION     4.14     4.54  4992.36     0  00:25        4.54
  WRF-003              JUNCTION     4.22     4.65  4992.12     0  00:25        4.65
  WRF-004              JUNCTION     3.53     3.99  4990.21     0  00:25        3.99
  WRF-005              JUNCTION     2.76     3.21  4987.97     0  00:24        3.20
  WRF-006              JUNCTION     2.54     2.94  4987.00     0  00:24        2.94
  WRF-007              JUNCTION     1.68     1.93  4984.96     0  06:00        1.93
  WRF-008              JUNCTION    14.70    21.11  4987.14     0  00:24       17.41
  WRF-009              JUNCTION    16.00    20.36  4982.83     0  00:24       20.36
  WRF-010              JUNCTION    16.34    20.66  4981.85     0  00:24       20.14
  WRF-011              JUNCTION    15.51    17.68  4977.00     0  00:24       17.68
  WRF-012              JUNCTION    15.42    17.53  4974.38     0  00:25       17.52
  WRF-013              JUNCTION    13.59    15.35  4969.62     0  00:25       15.35
  WRF-014              JUNCTION    14.38    16.36  4969.17     0  00:25       16.31
  WRF-015              JUNCTION    14.99    17.00  4968.54     0  00:25       16.85
  WRF-016              JUNCTION    12.25    13.60  4960.22     0  00:25       13.54
  WRF-017              JUNCTION    14.19    15.53  4957.37     0  00:25       15.50
  NWRF1                OUTFALL      2.40     2.57  4929.52     0  00:14        2.57
  WWTP                 OUTFALL      2.41     2.50  4991.50     0  00:01        2.50
  
  
  *******************
  Node Inflow Summary
  *******************
  
  -------------------------------------------------------------------------------------------------
                                  Maximum  Maximum                  Lateral       Total        Flow
                                  Lateral    Total  Time of Max      Inflow      Inflow     Balance
                                   Inflow   Inflow   Occurrence      Volume      Volume       Error
  Node                 Type           CFS      CFS  days hr:min    10^6 gal    10^6 gal     Percent
  -------------------------------------------------------------------------------------------------
  AI-001               JUNCTION      6.35    10.36     0  00:00        1.03        1.29       0.073
  AI-002               JUNCTION      6.35    19.82     0  00:00        1.03        2.68       0.079
  AI-003               JUNCTION      4.06    10.89     0  00:00       0.655        1.21       0.169
  AI-004               JUNCTION      4.06    10.84     0  00:00       0.655        1.22       0.130
  AI-005               JUNCTION      4.19     8.80     0  00:24       0.677        1.42       0.082
  AI-006               JUNCTION      4.19     7.54     0  00:00       0.677       0.707       0.103
  AI-007               JUNCTION      4.19     9.64     0  00:00       0.677        1.38       0.065
  AI-008               JUNCTION      4.19    12.75     0  00:00       0.677         1.8       0.094
  AI-009               JUNCTION      0.00    13.89     0  00:01           0       0.783       0.715
  AI-010               JUNCTION      4.19     9.49     0  00:01       0.677        1.05       0.200
  AI-011               JUNCTION      4.19     6.67     0  00:03       0.677        1.04       0.143
  AI-012               JUNCTION      4.19     6.89     0  00:00       0.677       0.678       0.210
  AI-013               JUNCTION      4.19     8.04     0  00:06       0.677         1.3       0.113
  AI-014               JUNCTION      4.19    10.93     0  00:00       0.677        1.04       0.163
  AI-015               JUNCTION      4.19    12.21     0  00:00       0.677           1       0.143
  AI-016               JUNCTION      8.11    12.57     0  00:00        1.31        1.31       0.127
  AI-017               JUNCTION     16.90    19.87     0  00:00        2.73        3.02       0.081
  AI-018               JUNCTION     16.90    27.33     0  00:00        2.73        2.73       0.082
  AI-019               JUNCTION    123.03   124.77     0  00:10        19.9        20.2       0.012
[...]
  OT-092_OT-093               5.97      5.98      5.97      0.03         0.01
  OT-093_OT-094               5.96      5.97      5.96      0.02         0.01
  OT-094_OT-096               5.96      5.96      5.97      0.01         0.01
  OT-096_OT-097               5.96      5.96      5.97      0.04         0.03
  OT-097_OT-098               5.96      5.97      5.96      5.97         5.95
  OT-098_OT-099               5.95      5.96      5.95      5.96         5.94
  OT-099_OT-100               5.94      5.95      5.94      5.95         5.94
  OT-100_OT-101               5.93      5.94      5.93      0.04         0.01
  OT-101_OT-102               5.93      5.93      5.93      5.94         5.93
  OT-102_OT-103               5.93      5.93      5.93      0.01         0.01
  OT-103_OT-104               5.93      5.93      5.96      5.92         5.93
  OT-104_NR-046               5.96      5.96      5.98      5.93         5.93
  PSEUDO_PIPE_1               5.94      5.94      5.96      0.01         0.01
  PSEUDO_PIPE_2               5.97      5.99      5.97      0.08         0.06
  SAMH-100_SAMH-28            5.99      5.99      6.00      5.99         5.99
  SAMH-101_SAMH-100           5.99      5.99      5.99      0.01         0.01
  SAMH-102_SAMH-101           5.99      5.99      5.99      6.00         5.99
  SAMH-103_SAMH-102           5.99      6.00      5.99      0.01         0.01
  SAMH-104_SAMH-102           5.99      6.00      5.99      6.00         5.99
  SAMH-105_SAMH-100           5.99      6.00      5.99      6.00         5.99
  SAMH-106_SAMH-105           5.99      5.99      6.00      0.01         0.01
  SAMH-107_SAMH-106           5.99      6.00      5.99      0.01         0.01
  SAMH-10_SAMH-9              5.99      5.99      5.99      5.99         5.99
  SAMH-110_SAMH-27            6.00      6.00      6.00      6.00         6.00
  SAMH-111_SAMH-110           6.00      6.00      6.00      0.01         0.01
  SAMH-112_SAMH-111           6.00      6.00      6.00      0.01         0.01
  SAMH-113_SAMH-112           6.00      6.00      6.00      6.00         6.00
  SAMH-11_SAMH-10             5.99      5.99      5.99      0.01         0.01
  SAMH-12_SAMH-11             5.99      6.00      5.99      0.01         0.01
  SAMH-13_SAMH-12             6.00      6.00      6.00      6.00         6.00
  SAMH-14_SAMH-13             6.00      6.00      6.00      6.00         6.00
  SAMH-15_SAMH-14             6.00      6.00      6.00      5.99         6.00
  SAMH-16_SAMH-15             6.00      6.00      6.00      5.99         6.00
  SAMH-17_SAMH-16             6.00      6.00      6.00      0.01         0.01
  SAMH-18_SAMH-17             6.00      6.00      6.00      0.01         0.01
  SAMH-19_SAMH-18             5.99      5.99      5.99      0.01         0.01
  SAMH-1G_OT-097              5.96      5.96      5.97      0.01         0.01
  SAMH-1_SAMH-1G              5.97      5.97      5.97      0.03         0.03
  SAMH-20_SAMH-19             5.99      5.99      5.99      0.01         0.01
  SAMH-21_SAMH-20             5.98      5.98      5.99      5.98         0.01
  SAMH-22_SAMH-21             5.98      5.98      5.98      0.01         0.01
  SAMH-23_SAMH-22             5.99      5.99      5.99      0.01         0.01
  SAMH-24_SAMH-23             5.99      5.99      5.99      5.99         5.99
  SAMH-25_SAMH-24             5.99      5.99      5.99      0.01         0.01
  SAMH-26_SAMH-25             5.99      5.99      5.99      5.99         5.99
  SAMH-27_SAMH-26             5.99      5.99      5.99      5.99         5.99
  SAMH-28_SAMH-27             5.99      5.99      5.99      5.99         5.99
  SAMH-2_SAMH-1               5.96      5.96      5.97      0.01         0.01
  SAMH-3_SAMH-2               5.95      5.95      5.96      0.01         0.01
  SAMH-4_SAMH-3               5.95      5.97      5.95      5.97         5.95
  SAMH-5_SAMH-4               5.97      5.98      5.97      5.98         5.97
  SAMH-6_SAMH-5               5.98      5.99      5.98      0.05         0.03
  SAMH-8_SAMH-6               5.99      5.99      5.99      5.99         5.99
  SAMH-9_SAMH-8               5.99      5.99      5.99      0.01         0.01
  SW-040_SW-041               6.00      6.00      6.00      6.00         6.00
  SW-041_SW-042               5.99      6.00      5.99      0.01         0.01
  SW-042_SW-043               5.99      5.99      5.99      0.01         0.01
  SW-043_SW-044               5.99      5.99      5.99      0.01         0.01
  SW-044_SW-045               5.99      5.99      5.99      5.99         5.99
  SW-045_SW-046               5.99      5.99      5.99      5.99         5.99
  SW-046_SW-047               5.99      5.99      5.99      5.99         5.99
  SW-047_SW-048               5.99      5.99      5.99      0.01         0.01
  SW-048_SW-049               5.99      5.99      5.99      0.01         0.01
  SW-049_CS-2                 5.99      5.99      6.00      0.01         0.01
  SW-055_SW-056               5.99      5.99      6.00      6.00         0.01
  SW-056_OT-087               5.99      6.00      5.99      6.00         5.99
  TG-001_WRF-015              5.95      6.00      5.95      0.23         0.19
  TG-002_TG-001               5.99      5.99      6.00      5.99         5.99
  TG-003_TG-002               6.00      6.00      6.00      6.00         6.00
  TG-004_TG-003               6.00      6.00      6.00      0.01         0.01
  TG-005_TG-002               5.94      5.94      5.99      0.01         0.01
  TG-006_TG-005               5.94      5.96      5.94      0.02         0.01
  TG-007_TG-006               5.95      5.95      5.96      5.95         5.95
  TG-008_TG-007               5.95      5.96      5.95      5.97         5.95
  TG-009_TG-008               5.96      5.99      5.96      0.03         0.01
  TG-010_TG-009               5.99      5.99      5.99      5.95         0.01
  TG-011_TG-010               5.98      5.98      5.99      0.01         0.01
  TG-012_TG-011               5.98      5.98      5.98      5.98         5.98
  TG-013_TG-012               5.98      5.98      5.98      0.01         0.01
  TG-014_TG-013               5.98      5.98      5.98      0.01         0.01
  TG-015_TG-014               5.98      5.98      5.98      5.98         5.98
  TG-016_TG-015               5.98      5.99      5.98      0.01         0.01
  TG-017_TG-016               5.99      6.00      5.99      5.99         5.99
  TG-018_TG-017               6.00      6.00      6.00      0.01         0.01
  TG-019_TG-018               6.00      6.00      6.00      5.99         6.00
  TG-020_TG-019               6.00      6.00      6.00      6.00         6.00
  TG-021_TG-020               6.00      6.00      6.00      0.01         0.01
  TG-022_TG-021               6.00      6.00      6.00      0.01         0.01
  TG-023_TG-022               6.00      6.00      6.00      0.01         0.01
  TG-024_TG-023               6.00      6.00      6.00      6.00         6.00
  TG-025_TG-024               6.00      6.00      6.00      0.01         0.01
  TG-026_TG-025               6.00      6.00      6.00      6.00         6.00
  TG-027_TG-026               6.00      6.00      6.00      6.00         6.00
  TG-028_TG-027               6.00      6.00      6.00      6.00         6.00
  TG-029_TG-025               6.00      6.00      6.00      6.00         6.00
  TG-030_TG-029               6.00      6.00      6.00      0.01         0.01
  TG-031_TG-030               6.00      6.00      6.00      0.01         0.01
  TG-032_TG-031               6.00      6.00      6.00      6.00         6.00
  TG-033_TG-032               5.99      5.99      6.00      0.01         0.01
  TG-034_TG-015               5.99      5.99      5.99      0.01         0.01
  TG-035_TG-034               5.99      5.99      5.99      5.99         5.99
  TG-036_TG-035               5.99      5.99      5.99      5.99         5.99
  TG-037_TG-036               5.99      6.00      5.99      6.00         5.99
  TG-039_TG-038               6.00      6.00      6.00      6.00         6.00
  TG-040_TG-039               6.00      6.00      6.00      6.00         6.00
  TG-041_TG-040               6.00      6.00      6.00      6.00         0.01
  TG-042_TG-041               6.00      6.00      6.00      0.01         0.01
  TG-043_TG-042               0.01      0.01      6.00      0.01         0.01
  TG038_TG037                 6.00      6.00      6.00      6.00         6.00
  VP-01_CC-13                 5.99      5.99      6.00      5.98         0.01
  VP-02_VP-01                 5.99      6.00      5.99      6.00         5.99
  VP-03_VP-02                 6.00      6.00      6.00      6.00         6.00
  VP-04_VP-03                 6.00      6.00      6.00      6.00         6.00
  VP-05_VP-04                 6.00      6.00      6.00      6.00         0.01
  VP-06_VP-05                 6.00      6.00      6.00      6.00         6.00
  VP-07_VP-06                 6.00      6.00      6.00      6.00         6.00
  VP-08_VP-07                 6.00      6.00      6.00      0.01         0.01
  VP-09_VP-08                 6.00      6.00      6.00      0.01         0.01
  VP-10_VP-09                 6.00      6.00      6.00      6.00         6.00
  VP-11_VP-10                 6.00      6.00      6.00      6.00         0.01
  VP-12_VP-11                 6.00      6.00      6.00      0.01         0.01
  VP-13_VP-12                 6.00      6.00      6.00      0.01         0.01
  VP-14_VP-13                 6.00      6.00      6.00      0.01         0.01
  VP-15_VP-14                 6.00      6.00      6.00      5.99         6.00
  VP-16_VP-15                 6.00      6.00      6.00      0.01         0.01
  VP-20_CC-34                 5.99      6.00      5.99      0.02         0.01
  VP-21_VP-20                 6.00      6.00      6.00      0.01         0.01
  VP-23_VP-21                 6.00      6.00      6.00      6.00         6.00
  VP-24_VP-23                 6.00      6.00      6.00      0.01         0.01
  VP-25_VP-24                 6.00      6.00      6.00      0.01         0.01
  VP-26_VP-25                 6.00      6.00      6.00      0.01         0.01
  VP-27_VP-26                 6.00      6.00      6.00      0.01         0.01
  VP-28_VP-27                 6.00      6.00      6.00      5.99         6.00
  VP-29_VP-28                 6.00      6.00      6.00      6.00         6.00
  VP1-100_VP-29               5.99      5.99      6.00      6.00         0.01
  VP1-101_VP1-100             5.99      5.99      5.99      5.99         5.99
  VP1-102_VP1-101             5.99      6.00      5.99      0.01         0.01
  VP1-103_VP1-100             5.99      5.99      5.99      5.99         5.99
  VP1-104_VP1-103             5.99      5.99      5.99      5.99         5.99
  VP1-105_VP1-104             5.99      5.99      5.99      6.00         5.99
  VR-A1A_CC-43                5.99      6.00      5.99      6.00         5.99
  VR-A4_VR-A1A                6.00      6.00      6.00      6.00         6.00
  VR-A5_VR-A4                 6.00      6.00      6.00      5.99         0.01
  VR-A6_VR-A5                 6.00      6.00      6.00      0.01         0.01
  VR-A7_VR-A6                 6.00      6.00      6.00      0.01         0.01
  VR-A8_VR-A7                 6.00      6.00      6.00      6.00         6.00
  VR-A9_VR-A8                 6.00      6.00      6.00      0.01         0.01
  VR-B1A_VR-B1                6.00      6.00      6.00      0.01         0.01
  VR-B1_VR-A7                 6.00      6.00      6.00      6.00         6.00
  VR-B2_VR-B1A                6.00      6.00      6.00      6.00         6.00
  VR-B3_VR-B2                 6.00      6.00      6.00      5.99         0.01
  VR-B4_VR-B3                 6.00      6.00      6.00      0.01         0.01
  VR-B5_VR-B4                 6.00      6.00      6.00      6.00         6.00
  VR-B6_VR-B5                 6.00      6.00      6.00      0.01         0.01
  VR-B7B_VR-B7                6.00      6.00      6.00      6.00         6.00
  VR-B7_VR-B6                 6.00      6.00      6.00      0.01         0.01
  VR-C10_VR-C9                6.00      6.00      6.00      6.00         6.00
  VR-C11_VR-C10               6.00      6.00      6.00      0.01         0.01
  VR-C12_VR-C11               6.00      6.00      6.00      0.01         0.01
  VR-C13_VR-C12               6.00      6.00      6.00      0.01         0.01
  VR-C14_VR-C13               6.00      6.00      6.00      6.00         6.00
  VR-C15_VR-C14               6.00      6.00      6.00      6.00         6.00
  VR-C16_VR-C15               6.00      6.00      6.00      6.00         6.00
  VR-C17_VR-C16               6.00      6.00      6.00      6.00         6.00
  VR-C18_VR-C17               6.00      6.00      6.00      5.99         0.01
  VR-C19_VR-C18               6.00      6.00      6.00      6.00         6.00
  VR-C1A_CC-38                5.99      6.00      5.99      6.00         5.99
  VR-C1_VR-C1A                6.00      6.00      6.00      0.01         0.01
  VR-C20_VR-C19               6.00      6.00      6.00      0.01         0.01
  VR-C2_VR-C1                 6.00      6.00      6.00      6.00         6.00
  VR-C3_VR-C2                 6.00      6.00      6.00      6.00         6.00
  VR-C4_VR-C3                 6.00      6.00      6.00      6.00         6.00
  VR-C5_VR-C4                 6.00      6.00      6.00      6.00         6.00
  VR-C6_VR-C5                 6.00      6.00      6.00      6.00         0.01
  VR-C7_VR-C6                 6.00      6.00      6.00      6.00         0.01
  VR-C8_VR-C7                 6.00      6.00      6.00      6.00         0.01
  VR-C9_VR-C8                 6.00      6.00      6.00      6.00         6.00
  WF-001_WRF-000              5.95      5.95      5.97      5.95         5.95
  WF-002_WF-001               5.95      5.96      5.95      5.96         5.95
  WF-003_WF-002               5.96      5.96      5.96      5.96         5.96
  WF-004_WF-003               5.96      5.97      5.96      5.97         5.96
  WF-005_WF-004               5.97      5.97      5.97      0.11         0.07
  WF-006_WF-005               5.97      5.98      5.97      5.98         5.97
  WF-007_WF-006               5.98      5.98      5.98      5.98         5.97
  WF-008_WF-007               5.98      5.99      5.98      5.99         5.98
  WF-009_WF-008               5.99      5.99      5.99      5.99         5.99
  WF-010_WF-009               5.99      6.00      5.99      6.00         5.99
  WF-011_WF-010               5.98      5.98      6.00      5.99         0.01
  WF-012_WF-011               5.96      5.96      5.98      5.97         0.01
  WF-013_WF-012               5.93      5.93      5.96      5.95         0.01
  WF-014_WF-013               5.91      5.91      5.93      5.92         0.01
  WF-015_WF-014               5.91      5.91      5.91      5.89         0.01
  WF-016_WF-015               5.91      5.92      5.91      5.92         0.01
  WF-017_WF-016               5.92      5.95      5.92      5.95         0.02
  WF-018_WF-017               5.95      5.96      5.95      5.96         0.04
  WF-019_WF-018               5.96      5.97      5.96      5.98         5.96
  WF-020_WF-019               5.97      5.98      5.97      5.98         5.97
  WF-021A_WF-021              5.99      5.99      5.99      5.99         5.98
  WF-021_WF-020               5.98      5.99      5.98      5.99         5.98
  WF-022_WF-021A              5.99      5.99      5.99      5.99         5.98
  WF-023_WF-022               5.97      5.97      5.99      0.07         0.01
  WF-024_WF-023               5.96      5.96      5.97      0.05         0.01
  WF-025_WF-024               5.95      5.95      5.96      5.95         5.93
  WF-026_WF-025               5.93      5.93      5.95      5.94         5.93
  WF-027_WF-026               5.93      5.93      5.93      5.92         5.93
  WF-028_WF-027               5.93      5.95      5.93      5.95         5.92
  WF-029_WF-028               5.95      5.96      5.95      5.96         5.93
  WF-030_WF-029               5.96      5.97      5.96      5.97         5.96
  WF-031_WF-030               5.97      5.97      5.97      0.05         0.03
  WF-032_WF-031               5.97      5.97      5.97      0.01         0.02
  WF-033_WF-032               5.97      5.97      5.97      0.01         0.01
  WF-034_WF-033               5.97      5.97      5.97      5.97         5.97
  WF-035_WF-034               5.97      5.97      5.97      5.97         5.97
  WF-036_WF-035               5.97      5.97      5.97      0.01         0.01
  WF-037_WF-036               5.97      5.98      5.97      0.02         0.01
  WF-038_WF-037               5.98      5.98      5.98      5.99         5.98
  WF-039_WF-038               5.98      5.98      5.98      0.01         0.01
  WF-040_WF-039               5.98      5.98      5.98      0.01         0.01
  WF-041_WF-040               5.98      5.98      5.98      0.01         0.01
  WF-042_WF-041               5.98      5.98      5.98      0.01         0.01
  WF-043_WF-042               5.98      5.98      5.98      0.01         0.01
  WF-044_WF-043               5.98      5.98      5.98      5.98         5.98
  WF-045_WF-044               5.98      5.98      5.98      5.98         5.98
  WF-046_WF-045               5.98      5.98      5.98      0.01         0.01
  WF-047_WF-046               5.98      5.98      5.98      0.01         0.01
  WF-048_WF-047               5.97      5.97      5.98      0.01         0.01
  WF-049_WF-048               5.97      5.97      5.97      0.01         0.01
  WF-051_WF-049               5.97      5.97      5.97      0.01         0.01
  WF-052_WF-051               5.97      5.97      5.97      5.97         5.97
  WF-053_WF-052               5.97      5.97      5.97      5.97         5.96
  WF-054_WF-053               5.97      5.97      5.97      5.98         5.97
  WF-055_WF-054               5.98      5.98      5.98      0.01         0.01
  WF-056_WF-055               5.98      5.99      5.98      5.99         5.98
  WF-057_WF-056               5.99      5.99      5.99      0.02         0.01
  WF-058_WF-057               5.99      5.99      5.99      0.01         0.01
  WRF-000_WRF-001             5.92      5.93      5.92      0.20         0.14
  WRF-000_WWTP                5.95      5.95      5.97      5.97         5.95
  WRF-001_WRF-002             5.86      5.92      5.86      0.17         0.08
  WRF-002_WRF-003             5.86      5.86      5.86      0.01         0.01
  WRF-003_WRF-004             5.77      5.86      5.77      5.89         5.77
  WRF-004_WRF-005             5.65      5.77      5.65      5.81         5.65
  WRF-005_WRF-006             0.01      5.65      0.01      5.75         0.01
  WRF-006_WRF-007             0.01      0.01      0.01      5.71         0.01
  WRF-007_WRF-008             0.01      0.01      5.60      0.01         0.01
  WRF-008_WRF-009             5.60      5.60      5.63      0.01         0.01
  WRF-009_WRF-010             5.63      5.63      5.65      0.01         0.02
  WRF-010_WRF-011             5.65      5.65      5.70      5.58         5.60
  WRF-011_WRF-012             5.70      5.70      5.75      5.57         5.60
  WRF-012_WRF-013             5.75      5.75      5.78      5.59         5.61
  WRF-013_WRF-014             5.78      5.78      5.81      0.01         0.01
  WRF-014_WRF-015             5.81      5.81      5.82      0.01         0.01
  WRF-015_WRF-016             5.82      5.82      5.85      5.65         5.66
  WRF-016_WRF-017             5.85      5.85      5.88      0.01         0.01
  WRF-017_NWRF                5.88      5.88      5.89      5.60         5.60
  

  Analysis begun on:  Fri Nov 29 09:04:49 2019
  Analysis ended on:  Fri Nov 29 09:04:50 2019
  Total elapsed time: 00:00:01