
  EPA STORM WATER MANAGEMENT MODEL - VERSION 5.1 (Build 5.1.013)
  --------------------------------------------------------------

  WARNING 04: minimum elevation drop used for Conduit 1629
  WARNING 04: minimum elevation drop used for Conduit 1630
  WARNING 04: minimum elevation drop used for Conduit 1632
  WARNING 04: minimum elevation drop used for Conduit 1639
  WARNING 04: minimum elevation drop used for Conduit 1645
  WARNING 04: minimum elevation drop used for Conduit 1745
  WARNING 04: minimum elevation drop used for Conduit 1746
  WARNING 04: minimum elevation drop used for Conduit 1747
  WARNING 04: minimum elevation drop used for Conduit 1748
  WARNING 04: minimum elevation drop used for Conduit 1749
  WARNING 04: minimum elevation drop used for Conduit 1788
  WARNING 04: minimum elevation drop used for Conduit 1790
  WARNING 04: minimum elevation drop used for Conduit 1805
  WARNING 04: minimum elevation drop used for Conduit 1829
  WARNING 04: minimum elevation drop used for Conduit 1850
  WARNING 04: minimum elevation drop used for Conduit 1891
  WARNING 04: minimum elevation drop used for Conduit 1911
  WARNING 04: minimum elevation drop used for Conduit 1912
  WARNING 04: minimum elevation drop used for Conduit 1915
  WARNING 04: minimum elevation drop used for Conduit 1944
  WARNING 04: minimum elevation drop used for Conduit 1945
  WARNING 04: minimum elevation drop used for Conduit 1946
  WARNING 04: minimum elevation drop used for Conduit 1947
  WARNING 04: minimum elevation drop used for Conduit 1951
  WARNING 04: minimum elevation drop used for Conduit 1954
  WARNING 04: minimum elevation drop used for Conduit 1955
  WARNING 04: minimum elevation drop used for Conduit 1957
  WARNING 04: minimum elevation drop used for Conduit 1978
  WARNING 04: minimum elevation drop used for Conduit 1979
  WARNING 04: minimum elevation drop used for Conduit 2070
  WARNING 04: minimum elevation drop used for Conduit 2072
  WARNING 04: minimum elevation drop used for Conduit 2190
  WARNING 04: minimum elevation drop used for Conduit 2191
  WARNING 04: minimum elevation drop used for Conduit 2200
  WARNING 04: minimum elevation drop used for Conduit 2211
  WARNING 04: minimum elevation drop used for Conduit 2212
  WARNING 04: minimum elevation drop used for Conduit 2213
  WARNING 04: minimum elevation drop used for Conduit 2296
  WARNING 04: minimum elevation drop used for Conduit 2298
  WARNING 04: minimum elevation drop used for Conduit 2580
  WARNING 04: minimum elevation drop used for Conduit 2616
  WARNING 04: minimum elevation drop used for Conduit 2617
  WARNING 04: minimum elevation drop used for Conduit 2618
  WARNING 04: minimum elevation drop used for Conduit 2619
  WARNING 04: minimum elevation drop used for Conduit 2621
  WARNING 04: minimum elevation drop used for Conduit 2622
  WARNING 04: minimum elevation drop used for Conduit 2630
  WARNING 04: minimum elevation drop used for Conduit 2631
  WARNING 04: minimum elevation drop used for Conduit 2647
  WARNING 04: minimum elevation drop used for Conduit 2648
  WARNING 04: minimum elevation drop used for Conduit 2649
  WARNING 04: minimum elevation drop used for Conduit 2650
  WARNING 04: minimum elevation drop used for Conduit 2651
  WARNING 04: minimum elevation drop used for Conduit 2652
  WARNING 04: minimum elevation drop used for Conduit 2653
  WARNING 04: minimum elevation drop used for Conduit 2654
  WARNING 04: minimum elevation drop used for Conduit 2655
  WARNING 04: minimum elevation drop used for Conduit 2661
  WARNING 04: minimum elevation drop used for Conduit 2662
  WARNING 04: minimum elevation drop used for Conduit 2663
  WARNING 04: minimum elevation drop used for Conduit 2664
  WARNING 04: minimum elevation drop used for Conduit 2665
  WARNING 04: minimum elevation drop used for Conduit 2666
  WARNING 04: minimum elevation drop used for Conduit 2672
  WARNING 04: minimum elevation drop used for Conduit 2702
  WARNING 04: minimum elevation drop used for Conduit 2703
  WARNING 04: minimum elevation drop used for Conduit 2710
  WARNING 04: minimum elevation drop used for Conduit 2715
  WARNING 04: minimum elevation drop used for Conduit 2717
  WARNING 04: minimum elevation drop used for Conduit 2825
  WARNING 04: minimum elevation drop used for Conduit 2829
  WARNING 04: minimum elevation drop used for Conduit 2878
  WARNING 04: minimum elevation drop used for Conduit 2892
  WARNING 04: minimum elevation drop used for Conduit 2893
  WARNING 04: minimum elevation drop used for Conduit 2896
  WARNING 04: minimum elevation drop used for Conduit 2902
  WARNING 04: minimum elevation drop used for Conduit 2903
  WARNING 04: minimum elevation drop used for Conduit 2904
  WARNING 04: minimum elevation drop used for Conduit 2905
  WARNING 04: minimum elevation drop used for Conduit 2906
  WARNING 04: minimum elevation drop used for Conduit 2936
  WARNING 04: minimum elevation drop used for Conduit 2938
  WARNING 04: minimum elevation drop used for Conduit 2939
  WARNING 04: minimum elevation drop used for Conduit 3102
  WARNING 04: minimum elevation drop used for Conduit 3111
  WARNING 04: minimum elevation drop used for Conduit 3116
  WARNING 04: minimum elevation drop used for Conduit 3454
  WARNING 04: minimum elevation drop used for Conduit 3455
  WARNING 04: minimum elevation drop used for Conduit 3460
  WARNING 04: minimum elevation drop used for Conduit 3461
  WARNING 04: minimum elevation drop used for Conduit 3462
  WARNING 04: minimum elevation drop used for Conduit 3479
  WARNING 04: minimum elevation drop used for Conduit 3553
  WARNING 04: minimum elevation drop used for Conduit 3554
  WARNING 04: minimum elevation drop used for Conduit 3562
  WARNING 04: minimum elevation drop used for Conduit 3574
  WARNING 04: minimum elevation drop used for Conduit 3575
  WARNING 04: minimum elevation drop used for Conduit 3581
  WARNING 04: minimum elevation drop used for Conduit 3613
  WARNING 04: minimum elevation drop used for Conduit 3789
  WARNING 04: minimum elevation drop used for Conduit 3790
  WARNING 04: minimum elevation drop used for Conduit 4255
  WARNING 04: minimum elevation drop used for Conduit 4256
  WARNING 04: minimum elevation drop used for Conduit 4257
  WARNING 04: minimum elevation drop used for Conduit 4258
  WARNING 04: minimum elevation drop used for Conduit 4260
  WARNING 04: minimum elevation drop used for Conduit 4261
  WARNING 04: minimum elevation drop used for Conduit 4262
  WARNING 04: minimum elevation drop used for Conduit 4263
  WARNING 04: minimum elevation drop used for Conduit 4264
  WARNING 04: minimum elevation drop used for Conduit 4265
  WARNING 04: minimum elevation drop used for Conduit 4266
  WARNING 04: minimum elevation drop used for Conduit 4267
  WARNING 04: minimum elevation drop used for Conduit 4268
  WARNING 04: minimum elevation drop used for Conduit 4269
  WARNING 04: minimum elevation drop used for Conduit 4270
  WARNING 04: minimum elevation drop used for Conduit 4271
  WARNING 04: minimum elevation drop used for Conduit 4275
  WARNING 04: minimum elevation drop used for Conduit 4276
  WARNING 04: minimum elevation drop used for Conduit 4277
  WARNING 04: minimum elevation drop used for Conduit 4278
  WARNING 04: minimum elevation drop used for Conduit 4279
  WARNING 04: minimum elevation drop used for Conduit 4280
  WARNING 04: minimum elevation drop used for Conduit 4281
  WARNING 04: minimum elevation drop used for Conduit 4283
  WARNING 04: minimum elevation drop used for Conduit 4284
  WARNING 04: minimum elevation drop used for Conduit 4285
  WARNING 04: minimum elevation drop used for Conduit 4286
  WARNING 04: minimum elevation drop used for Conduit 4287
  WARNING 04: minimum elevation drop used for Conduit 4288
  WARNING 04: minimum elevation drop used for Conduit 4289
  WARNING 04: minimum elevation drop used for Conduit 4290
  WARNING 04: minimum elevation drop used for Conduit 4291
  WARNING 04: minimum elevation drop used for Conduit 4292
  WARNING 04: minimum elevation drop used for Conduit 4293
  WARNING 04: minimum elevation drop used for Conduit 4294
  WARNING 04: minimum elevation drop used for Conduit 4295
  WARNING 04: minimum elevation drop used for Conduit 4309
  WARNING 04: minimum elevation drop used for Conduit 4312
  WARNING 04: minimum elevation drop used for Conduit 4313
  WARNING 04: minimum elevation drop used for Conduit 4314
  WARNING 04: minimum elevation drop used for Conduit 4315
  WARNING 04: minimum elevation drop used for Conduit 4316
  WARNING 04: minimum elevation drop used for Conduit 4317
  WARNING 04: minimum elevation drop used for Conduit 4318
  WARNING 04: minimum elevation drop used for Conduit 4319
  WARNING 04: minimum elevation drop used for Conduit 4320
  WARNING 04: minimum elevation drop used for Conduit 4328
  WARNING 04: minimum elevation drop used for Conduit 4329
  WARNING 04: minimum elevation drop used for Conduit 4330
  WARNING 04: minimum elevation drop used for Conduit 4331
  WARNING 04: minimum elevation drop used for Conduit 4332
  WARNING 04: minimum elevation drop used for Conduit 4333
  WARNING 04: minimum elevation drop used for Conduit 4334
  WARNING 04: minimum elevation drop used for Conduit 4337
  WARNING 04: minimum elevation drop used for Conduit 4338
  WARNING 04: minimum elevation drop used for Conduit 4339
  WARNING 04: minimum elevation drop used for Conduit 4340
  WARNING 04: minimum elevation drop used for Conduit 4341
  WARNING 04: minimum elevation drop used for Conduit 4342
  WARNING 04: minimum elevation drop used for Conduit 4343
  WARNING 04: minimum elevation drop used for Conduit 4362
  WARNING 04: minimum elevation drop used for Conduit 4363
  WARNING 04: minimum elevation drop used for Conduit 4364
  WARNING 04: minimum elevation drop used for Conduit 4365
  WARNING 04: minimum elevation drop used for Conduit 4366
  WARNING 04: minimum elevation drop used for Conduit 4367
  WARNING 04: minimum elevation drop used for Conduit 4368
  WARNING 04: minimum elevation drop used for Conduit 4369
  WARNING 04: minimum elevation drop used for Conduit 4370
  WARNING 04: minimum elevation drop used for Conduit 4371
  WARNING 04: minimum elevation drop used for Conduit 4372
  WARNING 04: minimum elevation drop used for Conduit 4374
  WARNING 04: minimum elevation drop used for Conduit 4375
  WARNING 04: minimum elevation drop used for Conduit 4379
  WARNING 04: minimum elevation drop used for Conduit 4380
  WARNING 04: minimum elevation drop used for Conduit 4381
  WARNING 04: minimum elevation drop used for Conduit 4382
  WARNING 04: minimum elevation drop used for Conduit 4383
  WARNING 04: minimum elevation drop used for Conduit 4407
  WARNING 04: minimum elevation drop used for Conduit 4408
  WARNING 04: minimum elevation drop used for Conduit 4409
  WARNING 04: minimum elevation drop used for Conduit 4410
  WARNING 04: minimum elevation drop used for Conduit 4412
  WARNING 04: minimum elevation drop used for Conduit 4413
  WARNING 04: minimum elevation drop used for Conduit 4414
  WARNING 04: minimum elevation drop used for Conduit 4415
  WARNING 04: minimum elevation drop used for Conduit 4416
  WARNING 04: minimum elevation drop used for Conduit 4417
  WARNING 04: minimum elevation drop used for Conduit 4492
  WARNING 04: minimum elevation drop used for Conduit 4493
  WARNING 04: minimum elevation drop used for Conduit 4497
  WARNING 04: minimum elevation drop used for Conduit 4498
  WARNING 04: minimum elevation drop used for Conduit 4499
  WARNING 04: minimum elevation drop used for Conduit 4500
  WARNING 04: minimum elevation drop used for Conduit 4501
  WARNING 04: minimum elevation drop used for Conduit 4502
  WARNING 04: minimum elevation drop used for Conduit 4503
  WARNING 04: minimum elevation drop used for Conduit 4504
  WARNING 04: minimum elevation drop used for Conduit 4505
  WARNING 04: minimum elevation drop used for Conduit 4506
  WARNING 04: minimum elevation drop used for Conduit 4507
  WARNING 04: minimum elevation drop used for Conduit 4508
  WARNING 04: minimum elevation drop used for Conduit 4509
  WARNING 04: minimum elevation drop used for Conduit 4510
  WARNING 04: minimum elevation drop used for Conduit 4511
  WARNING 04: minimum elevation drop used for Conduit 4512
  WARNING 04: minimum elevation drop used for Conduit 4513
  WARNING 04: minimum elevation drop used for Conduit 4514
  WARNING 04: minimum elevation drop used for Conduit 4515
  WARNING 04: minimum elevation drop used for Conduit 4516
  WARNING 04: minimum elevation drop used for Conduit 4517
  WARNING 04: minimum elevation drop used for Conduit 4522
  WARNING 04: minimum elevation drop used for Conduit 4530
  WARNING 04: minimum elevation drop used for Conduit 4533
  WARNING 04: minimum elevation drop used for Conduit 4534
  WARNING 04: minimum elevation drop used for Conduit 4535
  WARNING 04: minimum elevation drop used for Conduit 4536
  WARNING 04: minimum elevation drop used for Conduit 4537
  WARNING 04: minimum elevation drop used for Conduit 4538
  WARNING 04: minimum elevation drop used for Conduit 4539
  WARNING 04: minimum elevation drop used for Conduit 4540
  WARNING 04: minimum elevation drop used for Conduit 4542
  WARNING 04: minimum elevation drop used for Conduit 4543
  WARNING 04: minimum elevation drop used for Conduit 4558
  WARNING 08: elevation drop exceeds length for Conduit 4691
  WARNING 08: elevation drop exceeds length for Conduit 4706
  WARNING 08: elevation drop exceeds length for Conduit 4720
  WARNING 08: elevation drop exceeds length for Conduit 4832
  WARNING 08: elevation drop exceeds length for Conduit 4857
  WARNING 08: elevation drop exceeds length for Conduit 4864
  WARNING 08: elevation drop exceeds length for Conduit 4892
  WARNING 04: minimum elevation drop used for Conduit 5144
  WARNING 04: minimum elevation drop used for Conduit 5149
  WARNING 04: minimum elevation drop used for Conduit 5152
  WARNING 04: minimum elevation drop used for Conduit 5157
  WARNING 04: minimum elevation drop used for Conduit 5158
  WARNING 04: minimum elevation drop used for Conduit 5161
  WARNING 04: minimum elevation drop used for Conduit 5162
  WARNING 04: minimum elevation drop used for Conduit 5195
  WARNING 04: minimum elevation drop used for Conduit 5200
  WARNING 04: minimum elevation drop used for Conduit 5384
  WARNING 04: minimum elevation drop used for Conduit 5466
  WARNING 04: minimum elevation drop used for Conduit 5645
  WARNING 04: minimum elevation drop used for Conduit 5646
  WARNING 04: minimum elevation drop used for Conduit 5647
  WARNING 08: elevation drop exceeds length for Conduit 5679
  WARNING 08: elevation drop exceeds length for Conduit 5887
  WARNING 08: elevation drop exceeds length for Conduit 5892
  WARNING 08: elevation drop exceeds length for Conduit 5907
  WARNING 04: minimum elevation drop used for Conduit 5917
  WARNING 04: minimum elevation drop used for Conduit 5918
  WARNING 04: minimum elevation drop used for Conduit 5919
  WARNING 04: minimum elevation drop used for Conduit 5920
  WARNING 04: minimum elevation drop used for Conduit 5921
  WARNING 04: minimum elevation drop used for Conduit 5922
  WARNING 04: minimum elevation drop used for Conduit 5923
  WARNING 04: minimum elevation drop used for Conduit 5924
  WARNING 08: elevation drop exceeds length for Conduit 5954
  WARNING 08: elevation drop exceeds length for Conduit 5965
  WARNING 08: elevation drop exceeds length for Conduit 5980
  WARNING 04: minimum elevation drop used for Conduit 5983
  WARNING 08: elevation drop exceeds length for Conduit 6166
  WARNING 08: elevation drop exceeds length for Conduit 6186
  WARNING 08: elevation drop exceeds length for Conduit 6407
  WARNING 08: elevation drop exceeds length for Conduit 6547
  WARNING 08: elevation drop exceeds length for Conduit 6629
  WARNING 08: elevation drop exceeds length for Conduit 6772
  WARNING 04: minimum elevation drop used for Conduit 6781
  WARNING 04: minimum elevation drop used for Conduit 9571
  WARNING 04: minimum elevation drop used for Conduit 9572
  WARNING 04: minimum elevation drop used for Conduit 9573
  WARNING 04: minimum elevation drop used for Conduit P15
  WARNING 04: minimum elevation drop used for Conduit P17
  WARNING 04: minimum elevation drop used for Conduit P19
  WARNING 04: minimum elevation drop used for Conduit P21
  WARNING 04: minimum elevation drop used for Conduit P23
  WARNING 04: minimum elevation drop used for Conduit P25
  WARNING 04: minimum elevation drop used for Conduit P31
  WARNING 04: minimum elevation drop used for Conduit P39
  WARNING 04: minimum elevation drop used for Conduit P59
  WARNING 04: minimum elevation drop used for Conduit P61
  WARNING 02: maximum depth increased for Node 3595
  WARNING 02: maximum depth increased for Node 3596
  WARNING 02: maximum depth increased for Node 3597
  WARNING 02: maximum depth increased for Node 3598
  WARNING 02: maximum depth increased for Node 3599
  WARNING 02: maximum depth increased for Node 3600
  WARNING 02: maximum depth increased for Node 3601
  WARNING 02: maximum depth increased for Node 3602
  WARNING 02: maximum depth increased for Node 3603
  WARNING 02: maximum depth increased for Node 3604
  WARNING 02: maximum depth increased for Node 3605
  WARNING 02: maximum depth increased for Node 3606
  WARNING 02: maximum depth increased for Node 3607
  WARNING 02: maximum depth increased for Node 3608
  WARNING 02: maximum depth increased for Node 3609
  WARNING 02: maximum depth increased for Node 3610
  WARNING 02: maximum depth increased for Node 3611
  WARNING 02: maximum depth increased for Node 3612
  WARNING 02: maximum depth increased for Node 3613
  WARNING 02: maximum depth increased for Node 3775
  WARNING 02: maximum depth increased for Node 3776
  WARNING 02: maximum depth increased for Node 3777
  WARNING 02: maximum depth increased for Node 3778
  WARNING 02: maximum depth increased for Node 3779
  WARNING 02: maximum depth increased for Node 3780
  WARNING 02: maximum depth increased for Node 3781
  WARNING 02: maximum depth increased for Node 3782
  WARNING 02: maximum depth increased for Node 3783
  WARNING 02: maximum depth increased for Node 3784
  WARNING 02: maximum depth increased for Node 3785
  WARNING 02: maximum depth increased for Node 3786
  WARNING 02: maximum depth increased for Node 3787
  WARNING 02: maximum depth increased for Node 3788
  WARNING 02: maximum depth increased for Node 3789
  WARNING 02: maximum depth increased for Node 3790
  WARNING 02: maximum depth increased for Node 3791
  WARNING 02: maximum depth increased for Node 3792
  WARNING 02: maximum depth increased for Node 3793
  WARNING 02: maximum depth increased for Node 3794
  WARNING 02: maximum depth increased for Node 3795
  WARNING 02: maximum depth increased for Node 3796
  WARNING 02: maximum depth increased for Node 3799
  WARNING 02: maximum depth increased for Node 3801
  WARNING 02: maximum depth increased for Node 3802
  WARNING 02: maximum depth increased for Node 3803
  WARNING 02: maximum depth increased for Node 3804
  WARNING 02: maximum depth increased for Node 3805
  WARNING 02: maximum depth increased for Node 3806
  WARNING 02: maximum depth increased for Node 3807
  WARNING 02: maximum depth increased for Node 3808
  WARNING 02: maximum depth increased for Node 3809
  WARNING 02: maximum depth increased for Node 3810
  WARNING 02: maximum depth increased for Node 3811
  WARNING 02: maximum depth increased for Node 3812
  WARNING 02: maximum depth increased for Node 3813
  WARNING 02: maximum depth increased for Node 3814
  WARNING 02: maximum depth increased for Node 3815
  WARNING 02: maximum depth increased for Node 3816
  WARNING 02: maximum depth increased for Node 3817
  WARNING 02: maximum depth increased for Node 3818
  WARNING 02: maximum depth increased for Node 3819
  WARNING 02: maximum depth increased for Node 3820
  WARNING 02: maximum depth increased for Node 3821
  WARNING 02: maximum depth increased for Node 3822
  WARNING 02: maximum depth increased for Node 3823
  WARNING 02: maximum depth increased for Node 3843
  WARNING 02: maximum depth increased for Node 3844
  WARNING 02: maximum depth increased for Node 3905
  WARNING 02: maximum depth increased for Node 3906
  WARNING 02: maximum depth increased for Node 3908
  WARNING 02: maximum depth increased for Node 3909
  WARNING 02: maximum depth increased for Node 3910
  WARNING 02: maximum depth increased for Node 3911
  WARNING 02: maximum depth increased for Node 3912
  WARNING 02: maximum depth increased for Node 3913
  WARNING 02: maximum depth increased for Node 3916
  WARNING 02: maximum depth increased for Node 3917
  WARNING 02: maximum depth increased for Node 3918
  WARNING 02: maximum depth increased for Node 3919
  WARNING 02: maximum depth increased for Node 3924
  WARNING 02: maximum depth increased for Node 3925
  WARNING 02: maximum depth increased for Node 3926
  WARNING 02: maximum depth increased for Node 3927
  WARNING 02: maximum depth increased for Node 3928
  WARNING 02: maximum depth increased for Node 3929
  WARNING 02: maximum depth increased for Node 3930
  WARNING 02: maximum depth increased for Node 3931
  WARNING 02: maximum depth increased for Node 3932
  WARNING 02: maximum depth increased for Node 3933
  WARNING 02: maximum depth increased for Node 3934
  WARNING 02: maximum depth increased for Node 3935
  WARNING 02: maximum depth increased for Node 3937
  WARNING 02: maximum depth increased for Node 3938
  WARNING 02: maximum depth increased for Node 3939
  WARNING 02: maximum depth increased for Node 3940
  WARNING 02: maximum depth increased for Node 3941
  WARNING 02: maximum depth increased for Node 3942
  WARNING 02: maximum depth increased for Node 3949
  WARNING 02: maximum depth increased for Node 3950
  WARNING 02: maximum depth increased for Node 3951
  WARNING 02: maximum depth increased for Node 3952
  WARNING 02: maximum depth increased for Node 3953
  WARNING 02: maximum depth increased for Node 3954
  WARNING 02: maximum depth increased for Node 3972
  WARNING 02: maximum depth increased for Node 3973
  WARNING 02: maximum depth increased for Node 3974
  WARNING 02: maximum depth increased for Node 3982
  WARNING 02: maximum depth increased for Node 4042
  WARNING 02: maximum depth increased for Node 4043
  WARNING 02: maximum depth increased for Node 4044
  WARNING 02: maximum depth increased for Node 4045
  WARNING 02: maximum depth increased for Node 4046
  WARNING 02: maximum depth increased for Node 4047
  WARNING 02: maximum depth increased for Node 4048
  WARNING 02: maximum depth increased for Node 4049
  WARNING 02: maximum depth increased for Node 4050
  WARNING 02: maximum depth increased for Node 4051
  WARNING 02: maximum depth increased for Node 4052
  WARNING 02: maximum depth increased for Node 4053
  WARNING 02: maximum depth increased for Node 4054
  WARNING 02: maximum depth increased for Node 4055
  WARNING 02: maximum depth increased for Node 4056
  WARNING 02: maximum depth increased for Node 4057
  WARNING 02: maximum depth increased for Node 4058
  WARNING 02: maximum depth increased for Node 4063
  WARNING 02: maximum depth increased for Node 4064
  WARNING 02: maximum depth increased for Node 4065
  WARNING 02: maximum depth increased for Node 4070
  WARNING 02: maximum depth increased for Node 4080
  WARNING 02: maximum depth increased for Node 4081
  WARNING 02: maximum depth increased for Node 4082
  WARNING 02: maximum depth increased for Node 4083
  WARNING 02: maximum depth increased for Node 4084
  WARNING 02: maximum depth increased for Node 4085
  WARNING 02: maximum depth increased for Node 4086
  WARNING 02: maximum depth increased for Node 4087
  WARNING 02: maximum depth increased for Node 4088
  WARNING 02: maximum depth increased for Node 4089
  WARNING 02: maximum depth increased for Node 4090
  WARNING 02: maximum depth increased for Node 4091
  WARNING 02: maximum depth increased for Node 4093
  WARNING 02: maximum depth increased for Node 4094
  WARNING 02: maximum depth increased for Node 4095
  WARNING 02: maximum depth increased for Node 4109
  WARNING 02: maximum depth increased for Node 4112
  WARNING 02: maximum depth increased for Node 4115
  WARNING 02: maximum depth increased for Node 4116
  WARNING 02: maximum depth increased for Node 4117
  WARNING 02: maximum depth increased for Node 4118
  WARNING 02: maximum depth increased for Node 4120
  WARNING 02: maximum depth increased for Node 4121
  WARNING 02: maximum depth increased for Node 4122
  WARNING 02: maximum depth increased for Node 4123
  WARNING 02: maximum depth increased for Node 4124
  WARNING 02: maximum depth increased for Node 4127
  WARNING 02: maximum depth increased for Node 4128
  WARNING 02: maximum depth increased for Node 4146
  WARNING 02: maximum depth increased for Node 4149
  WARNING 02: maximum depth increased for Node 4150
  WARNING 02: maximum depth increased for Node 4151
  WARNING 02: maximum depth increased for Node 4152
  WARNING 02: maximum depth increased for Node 4153
  WARNING 02: maximum depth increased for Node 4154
  WARNING 02: maximum depth increased for Node 4155
  WARNING 02: maximum depth increased for Node 4156
  WARNING 02: maximum depth increased for Node 4157
  WARNING 02: maximum depth increased for Node 4158
  WARNING 02: maximum depth increased for Node 4159
  WARNING 02: maximum depth increased for Node 4160
  WARNING 02: maximum depth increased for Node 4161
  WARNING 02: maximum depth increased for Node 4162
  WARNING 02: maximum depth increased for Node 4163
  WARNING 02: maximum depth increased for Node 4164
  WARNING 02: maximum depth increased for Node 4165
  WARNING 02: maximum depth increased for Node 4166
  WARNING 02: maximum depth increased for Node 4167
  WARNING 02: maximum depth increased for Node 4168
  WARNING 02: maximum depth increased for Node 4169
  WARNING 02: maximum depth increased for Node 4170
  WARNING 02: maximum depth increased for Node 4171
  WARNING 02: maximum depth increased for Node 4172
  WARNING 02: maximum depth increased for Node 4173
  WARNING 02: maximum depth increased for Node 4174
  WARNING 02: maximum depth increased for Node 4175
  WARNING 02: maximum depth increased for Node 4176
  WARNING 02: maximum depth increased for Node 4177
  WARNING 02: maximum depth increased for Node 4178
  WARNING 02: maximum depth increased for Node 4179
  WARNING 02: maximum depth increased for Node 4180
  WARNING 02: maximum depth increased for Node 4181
  WARNING 02: maximum depth increased for Node 4182
  WARNING 02: maximum depth increased for Node 4184
  WARNING 02: maximum depth increased for Node 4185
  WARNING 02: maximum depth increased for Node 4186
  WARNING 02: maximum depth increased for Node 4187
  WARNING 02: maximum depth increased for Node 4188
  WARNING 02: maximum depth increased for Node 4189
  WARNING 02: maximum depth increased for Node 4190
  WARNING 02: maximum depth increased for Node 4191
  WARNING 02: maximum depth increased for Node 4221
  WARNING 02: maximum depth increased for Node 4222
  WARNING 02: maximum depth increased for Node 4231
  WARNING 02: maximum depth increased for Node 4232
  WARNING 02: maximum depth increased for Node 4233
  WARNING 02: maximum depth increased for Node 4234
  WARNING 02: maximum depth increased for Node 4235
  WARNING 02: maximum depth increased for Node 4236
  WARNING 02: maximum depth increased for Node 4237
  WARNING 02: maximum depth increased for Node 4238
  WARNING 02: maximum depth increased for Node 4239
  WARNING 02: maximum depth increased for Node 4240
  WARNING 02: maximum depth increased for Node 4241
  WARNING 02: maximum depth increased for Node 4242
  WARNING 02: maximum depth increased for Node 4243
  WARNING 02: maximum depth increased for Node 4244
  WARNING 02: maximum depth increased for Node 4245
  WARNING 02: maximum depth increased for Node 4246
  WARNING 02: maximum depth increased for Node 4247
  WARNING 02: maximum depth increased for Node 4248
  WARNING 02: maximum depth increased for Node 4249
  WARNING 02: maximum depth increased for Node 4250
  WARNING 02: maximum depth increased for Node 4251
  WARNING 02: maximum depth increased for Node 4252
  WARNING 02: maximum depth increased for Node 4253
  WARNING 02: maximum depth increased for Node 4254
  WARNING 02: maximum depth increased for Node 4255
  WARNING 02: maximum depth increased for Node 4256
  WARNING 02: maximum depth increased for Node 4257
  WARNING 02: maximum depth increased for Node 4258
  WARNING 02: maximum depth increased for Node 4259
  WARNING 02: maximum depth increased for Node 4261
  WARNING 02: maximum depth increased for Node 4262
  WARNING 02: maximum depth increased for Node 4263
  WARNING 02: maximum depth increased for Node 4264
  WARNING 02: maximum depth increased for Node 4265
  WARNING 02: maximum depth increased for Node 4266
  WARNING 02: maximum depth increased for Node 4267
  WARNING 02: maximum depth increased for Node 4268
  WARNING 02: maximum depth increased for Node 4269
  WARNING 02: maximum depth increased for Node 4270
  WARNING 02: maximum depth increased for Node 4271
  WARNING 02: maximum depth increased for Node 4272
  WARNING 02: maximum depth increased for Node 4273
  WARNING 02: maximum depth increased for Node 4274
  WARNING 02: maximum depth increased for Node 4275
  WARNING 02: maximum depth increased for Node 4276
  WARNING 02: maximum depth increased for Node 4277
  WARNING 02: maximum depth increased for Node 4278
  WARNING 02: maximum depth increased for Node 4279
  WARNING 02: maximum depth increased for Node 4280
  WARNING 02: maximum depth increased for Node 4281
  WARNING 02: maximum depth increased for Node 4282
  WARNING 02: maximum depth increased for Node 4283
  WARNING 02: maximum depth increased for Node 4284
  WARNING 02: maximum depth increased for Node 4285
  WARNING 02: maximum depth increased for Node 4293
  WARNING 02: maximum depth increased for Node 4294
  WARNING 02: maximum depth increased for Node 4295
  WARNING 02: maximum depth increased for Node 4296
  WARNING 02: maximum depth increased for Node 4297
  WARNING 02: maximum depth increased for Node 4298
  WARNING 02: maximum depth increased for Node 4300
  WARNING 02: maximum depth increased for Node 4301
  WARNING 02: maximum depth increased for Node 4302
  WARNING 02: maximum depth increased for Node 4303
  WARNING 02: maximum depth increased for Node 4307
  WARNING 02: maximum depth increased for Node 4310
  WARNING 02: maximum depth increased for Node 4312
  WARNING 02: maximum depth increased for Node 4313
  WARNING 02: maximum depth increased for Node 4341
  WARNING 02: maximum depth increased for Node 4342
  WARNING 02: maximum depth increased for Node 4345
  WARNING 02: maximum depth increased for Node 4346
  WARNING 02: maximum depth increased for Node 4347
  WARNING 02: maximum depth increased for Node 4348
  WARNING 02: maximum depth increased for Node 4349
  WARNING 02: maximum depth increased for Node 4350
  WARNING 02: maximum depth increased for Node 4351
  WARNING 02: maximum depth increased for Node 4352
  WARNING 02: maximum depth increased for Node 4353
  WARNING 02: maximum depth increased for Node 4354
  WARNING 02: maximum depth increased for Node 4355
  WARNING 02: maximum depth increased for Node 4356
  WARNING 02: maximum depth increased for Node 4357
  WARNING 02: maximum depth increased for Node 4358
  WARNING 02: maximum depth increased for Node 4359
  WARNING 02: maximum depth increased for Node 4360
  WARNING 02: maximum depth increased for Node 4361
  WARNING 02: maximum depth increased for Node 4362
  WARNING 02: maximum depth increased for Node 4363
  WARNING 02: maximum depth increased for Node 4366
  WARNING 02: maximum depth increased for Node 4367
  WARNING 02: maximum depth increased for Node 4368
  WARNING 02: maximum depth increased for Node 4369
  WARNING 02: maximum depth increased for Node 4370
  WARNING 02: maximum depth increased for Node 4371
  WARNING 02: maximum depth increased for Node 4372
  WARNING 02: maximum depth increased for Node 4373
  WARNING 02: maximum depth increased for Node 4374
  WARNING 02: maximum depth increased for Node 4375
  WARNING 02: maximum depth increased for Node 4376
  WARNING 02: maximum depth increased for Node 4377
  WARNING 02: maximum depth increased for Node 4378
  WARNING 02: maximum depth increased for Node 4379
  WARNING 02: maximum depth increased for Node 4380
  WARNING 02: maximum depth increased for Node 4381
  WARNING 02: maximum depth increased for Node 4382
  WARNING 02: maximum depth increased for Node 4383
  WARNING 02: maximum depth increased for Node 4384
  WARNING 02: maximum depth increased for Node 4385
  WARNING 02: maximum depth increased for Node 4386
  WARNING 02: maximum depth increased for Node 4387
  WARNING 02: maximum depth increased for Node 4388
  WARNING 02: maximum depth increased for Node 4389
  WARNING 02: maximum depth increased for Node 4390
  WARNING 02: maximum depth increased for Node 4391
  WARNING 02: maximum depth increased for Node 4392
  WARNING 02: maximum depth increased for Node 4394
  WARNING 02: maximum depth increased for Node 4396
  WARNING 02: maximum depth increased for Node 4397
  WARNING 02: maximum depth increased for Node 4435
  WARNING 02: maximum depth increased for Node 4448
  WARNING 02: maximum depth increased for Node 4454
  WARNING 02: maximum depth increased for Node 4455
  WARNING 02: maximum depth increased for Node 4456
  WARNING 02: maximum depth increased for Node 4466
  WARNING 02: maximum depth increased for Node 4467
  WARNING 02: maximum depth increased for Node 4468
  WARNING 02: maximum depth increased for Node 4469
  WARNING 02: maximum depth increased for Node 4470
  WARNING 02: maximum depth increased for Node 4471
  WARNING 02: maximum depth increased for Node 4472
  WARNING 02: maximum depth increased for Node 4473
  WARNING 02: maximum depth increased for Node 4474
  WARNING 02: maximum depth increased for Node 4475
  WARNING 02: maximum depth increased for Node 4477
  WARNING 02: maximum depth increased for Node 4486
  WARNING 02: maximum depth increased for Node 4487
  WARNING 02: maximum depth increased for Node 4496
  WARNING 02: maximum depth increased for Node 4497
  WARNING 02: maximum depth increased for Node 4502
  WARNING 02: maximum depth increased for Node 4503
  WARNING 02: maximum depth increased for Node 4504
  WARNING 02: maximum depth increased for Node 4505
  WARNING 02: maximum depth increased for Node 4507
  WARNING 02: maximum depth increased for Node 4513
  WARNING 02: maximum depth increased for Node 4515
  WARNING 02: maximum depth increased for Node 4516
  WARNING 02: maximum depth increased for Node 4517
  WARNING 02: maximum depth increased for Node 4518
  WARNING 02: maximum depth increased for Node 4519
  WARNING 02: maximum depth increased for Node 4520
  WARNING 02: maximum depth increased for Node 4521
  WARNING 02: maximum depth increased for Node 4522
  WARNING 02: maximum depth increased for Node 4523
  WARNING 02: maximum depth increased for Node 4524
  WARNING 02: maximum depth increased for Node 4525
  WARNING 02: maximum depth increased for Node 4526
  WARNING 02: maximum depth increased for Node 4527
  WARNING 02: maximum depth increased for Node 4528
  WARNING 02: maximum depth increased for Node 4529
  WARNING 02: maximum depth increased for Node 4530
  WARNING 02: maximum depth increased for Node 4531
  WARNING 02: maximum depth increased for Node 4532
  WARNING 02: maximum depth increased for Node 4533
  WARNING 02: maximum depth increased for Node 4534
  WARNING 02: maximum depth increased for Node 4535
  WARNING 02: maximum depth increased for Node 4536
  WARNING 02: maximum depth increased for Node 4537
  WARNING 02: maximum depth increased for Node 4538
  WARNING 02: maximum depth increased for Node 4539
  WARNING 02: maximum depth increased for Node 4540
  WARNING 02: maximum depth increased for Node 4551
  WARNING 02: maximum depth increased for Node 4552
  WARNING 02: maximum depth increased for Node 4553
  WARNING 02: maximum depth increased for Node 4554
  WARNING 02: maximum depth increased for Node 4555
  WARNING 02: maximum depth increased for Node 4556
  WARNING 02: maximum depth increased for Node 4557
  WARNING 02: maximum depth increased for Node 4558
  WARNING 02: maximum depth increased for Node 4559
  WARNING 02: maximum depth increased for Node 4560
  WARNING 02: maximum depth increased for Node 4561
  WARNING 02: maximum depth increased for Node 4562
  WARNING 02: maximum depth increased for Node 4563
  WARNING 02: maximum depth increased for Node 4564
  WARNING 02: maximum depth increased for Node 4565
  WARNING 02: maximum depth increased for Node 4566
  WARNING 02: maximum depth increased for Node 4567
  WARNING 02: maximum depth increased for Node 4568
  WARNING 02: maximum depth increased for Node 4569
  WARNING 02: maximum depth increased for Node 4571
  WARNING 02: maximum depth increased for Node 4572
  WARNING 02: maximum depth increased for Node 4573
  WARNING 02: maximum depth increased for Node 4574
  WARNING 02: maximum depth increased for Node 4575
  WARNING 02: maximum depth increased for Node 4576
  WARNING 02: maximum depth increased for Node 4577
  WARNING 02: maximum depth increased for Node 4578
  WARNING 02: maximum depth increased for Node 4579
  WARNING 02: maximum depth increased for Node 4580
  WARNING 02: maximum depth increased for Node 4581
  WARNING 02: maximum depth increased for Node 4582
  WARNING 02: maximum depth increased for Node 4583
  WARNING 02: maximum depth increased for Node 4584
  WARNING 02: maximum depth increased for Node 4585
  WARNING 02: maximum depth increased for Node 4586
  WARNING 02: maximum depth increased for Node 4587
  WARNING 02: maximum depth increased for Node 4607
  WARNING 02: maximum depth increased for Node 4608
  WARNING 02: maximum depth increased for Node 4609
  WARNING 02: maximum depth increased for Node 4610
  WARNING 02: maximum depth increased for Node 4611
  WARNING 02: maximum depth increased for Node 4612
  WARNING 02: maximum depth increased for Node 4626
  WARNING 02: maximum depth increased for Node 4627
  WARNING 02: maximum depth increased for Node 4628
  WARNING 02: maximum depth increased for Node 4629
  WARNING 02: maximum depth increased for Node 4630
  WARNING 02: maximum depth increased for Node 4631
  WARNING 02: maximum depth increased for Node 4632
  WARNING 02: maximum depth increased for Node 4633
  WARNING 02: maximum depth increased for Node 4634
  WARNING 02: maximum depth increased for Node 4635
  WARNING 02: maximum depth increased for Node 4636
  WARNING 02: maximum depth increased for Node 4637
  WARNING 02: maximum depth increased for Node 4638
  WARNING 02: maximum depth increased for Node 4639
  WARNING 02: maximum depth increased for Node 4640
  WARNING 02: maximum depth increased for Node 4641
  WARNING 02: maximum depth increased for Node 4642
  WARNING 02: maximum depth increased for Node 4643
  WARNING 02: maximum depth increased for Node 4644
  WARNING 02: maximum depth increased for Node 4645
  WARNING 02: maximum depth increased for Node 4646
  WARNING 02: maximum depth increased for Node 4647
  WARNING 02: maximum depth increased for Node 4648
  WARNING 02: maximum depth increased for Node 4649
  WARNING 02: maximum depth increased for Node 4650
  WARNING 02: maximum depth increased for Node 4651
  WARNING 02: maximum depth increased for Node 4652
  WARNING 02: maximum depth increased for Node 4660
  WARNING 02: maximum depth increased for Node 4661
  WARNING 02: maximum depth increased for Node 4662
  WARNING 02: maximum depth increased for Node 4671
  WARNING 02: maximum depth increased for Node 4672
  WARNING 02: maximum depth increased for Node 4673
  WARNING 02: maximum depth increased for Node 4674
  WARNING 02: maximum depth increased for Node 4675
  WARNING 02: maximum depth increased for Node 4684
  WARNING 02: maximum depth increased for Node 4685
  WARNING 02: maximum depth increased for Node 4686
  WARNING 02: maximum depth increased for Node 4687
  WARNING 02: maximum depth increased for Node 4688
  WARNING 02: maximum depth increased for Node 4689
  WARNING 02: maximum depth increased for Node 4690
  WARNING 02: maximum depth increased for Node 4691
  WARNING 02: maximum depth increased for Node 4692
  WARNING 02: maximum depth increased for Node 4693
  WARNING 02: maximum depth increased for Node 4694
  WARNING 02: maximum depth increased for Node 4695
  WARNING 02: maximum depth increased for Node 4696
  WARNING 02: maximum depth increased for Node 4697
  WARNING 02: maximum depth increased for Node 4698
  WARNING 02: maximum depth increased for Node 4699
  WARNING 02: maximum depth increased for Node 4700
  WARNING 02: maximum depth increased for Node 4701
  WARNING 02: maximum depth increased for Node 4702
  WARNING 02: maximum depth increased for Node 4703
  WARNING 02: maximum depth increased for Node 4704
  WARNING 02: maximum depth increased for Node 4705
  WARNING 02: maximum depth increased for Node 4706
  WARNING 02: maximum depth increased for Node 4707
  WARNING 02: maximum depth increased for Node 4708
  WARNING 02: maximum depth increased for Node 4709
  WARNING 02: maximum depth increased for Node 4710
  WARNING 02: maximum depth increased for Node 4711
  WARNING 02: maximum depth increased for Node 4712
  WARNING 02: maximum depth increased for Node 4713
  WARNING 02: maximum depth increased for Node 4714
  WARNING 02: maximum depth increased for Node 4715
  WARNING 02: maximum depth increased for Node 4716
  WARNING 02: maximum depth increased for Node 4717
  WARNING 02: maximum depth increased for Node 4719
  WARNING 02: maximum depth increased for Node 4720
  WARNING 02: maximum depth increased for Node 4721
  WARNING 02: maximum depth increased for Node 4722
  WARNING 02: maximum depth increased for Node 4723
  WARNING 02: maximum depth increased for Node 4724
  WARNING 02: maximum depth increased for Node 4725
  WARNING 02: maximum depth increased for Node 4726
  WARNING 02: maximum depth increased for Node 4727
  WARNING 02: maximum depth increased for Node 4728
  WARNING 02: maximum depth increased for Node 4729
  WARNING 02: maximum depth increased for Node 4730
  WARNING 02: maximum depth increased for Node 4731
  WARNING 02: maximum depth increased for Node 4732
  WARNING 02: maximum depth increased for Node 4733
  WARNING 02: maximum depth increased for Node 4734
  WARNING 02: maximum depth increased for Node 4735
  WARNING 02: maximum depth increased for Node 4736
  WARNING 02: maximum depth increased for Node 4737
  WARNING 02: maximum depth increased for Node 4738
  WARNING 02: maximum depth increased for Node 4739
  WARNING 02: maximum depth increased for Node 4740
  WARNING 02: maximum depth increased for Node 4741
  WARNING 02: maximum depth increased for Node 4742
  WARNING 02: maximum depth increased for Node 4744
  WARNING 02: maximum depth increased for Node 4745
  WARNING 02: maximum depth increased for Node 4746
  WARNING 02: maximum depth increased for Node 4747
  WARNING 02: maximum depth increased for Node 4758
  WARNING 02: maximum depth increased for Node 4759
  WARNING 02: maximum depth increased for Node 4761
  WARNING 02: maximum depth increased for Node 4762
  WARNING 02: maximum depth increased for Node 4763
  WARNING 02: maximum depth increased for Node 4764
  WARNING 02: maximum depth increased for Node 4765
  WARNING 02: maximum depth increased for Node 4766
  WARNING 02: maximum depth increased for Node 4767
  WARNING 02: maximum depth increased for Node 4768
  WARNING 02: maximum depth increased for Node 4769
  WARNING 02: maximum depth increased for Node 4781
  WARNING 02: maximum depth increased for Node 4815
  WARNING 02: maximum depth increased for Node 4816
  WARNING 02: maximum depth increased for Node 4817
  WARNING 02: maximum depth increased for Node 4818
  WARNING 02: maximum depth increased for Node 4819
  WARNING 02: maximum depth increased for Node 4820
  WARNING 02: maximum depth increased for Node 4821
  WARNING 02: maximum depth increased for Node 4826
  WARNING 02: maximum depth increased for Node 4868
  WARNING 02: maximum depth increased for Node 4869
  WARNING 02: maximum depth increased for Node 4870
  WARNING 02: maximum depth increased for Node 4871
  WARNING 02: maximum depth increased for Node 4872
  WARNING 02: maximum depth increased for Node 4873
  WARNING 02: maximum depth increased for Node 4874
  WARNING 02: maximum depth increased for Node 4875
  WARNING 02: maximum depth increased for Node 4876
  WARNING 02: maximum depth increased for Node 4877
  WARNING 02: maximum depth increased for Node 4878
  WARNING 02: maximum depth increased for Node 4879
  WARNING 02: maximum depth increased for Node 4880
  WARNING 02: maximum depth increased for Node 4881
  WARNING 02: maximum depth increased for Node 4882
  WARNING 02: maximum depth increased for Node 4883
  WARNING 02: maximum depth increased for Node 4884
  WARNING 02: maximum depth increased for Node 4886
  WARNING 02: maximum depth increased for Node 4887
  WARNING 02: maximum depth increased for Node 4888
  WARNING 02: maximum depth increased for Node 4889
  WARNING 02: maximum depth increased for Node 4890
  WARNING 02: maximum depth increased for Node 4891
  WARNING 02: maximum depth increased for Node 4892
  WARNING 02: maximum depth increased for Node 4893
  WARNING 02: maximum depth increased for Node 4894
  WARNING 02: maximum depth increased for Node 4895
  WARNING 02: maximum depth increased for Node 4896
  WARNING 02: maximum depth increased for Node 4897
  WARNING 02: maximum depth increased for Node 4898
  WARNING 02: maximum depth increased for Node 4899
  WARNING 02: maximum depth increased for Node 4900
  WARNING 02: maximum depth increased for Node 4901
  WARNING 02: maximum depth increased for Node 4902
  WARNING 02: maximum depth increased for Node 4903
  WARNING 02: maximum depth increased for Node 4904
  WARNING 02: maximum depth increased for Node 4905
  WARNING 02: maximum depth increased for Node 4926
  WARNING 02: maximum depth increased for Node 4927
  WARNING 02: maximum depth increased for Node 4928
  WARNING 02: maximum depth increased for Node 4929
  WARNING 02: maximum depth increased for Node 4930
  WARNING 02: maximum depth increased for Node 4933
  WARNING 02: maximum depth increased for Node 4937
  WARNING 02: maximum depth increased for Node 4938
  WARNING 02: maximum depth increased for Node 4939
  WARNING 02: maximum depth increased for Node 4941
  WARNING 02: maximum depth increased for Node 4942
  WARNING 02: maximum depth increased for Node 4943
  WARNING 02: maximum depth increased for Node 4944
  WARNING 02: maximum depth increased for Node 4945
  WARNING 02: maximum depth increased for Node 4946
  WARNING 02: maximum depth increased for Node 4947
  WARNING 02: maximum depth increased for Node 4948
  WARNING 02: maximum depth increased for Node 4949
  WARNING 02: maximum depth increased for Node 4956
  WARNING 02: maximum depth increased for Node 4960
  WARNING 02: maximum depth increased for Node 4961
  WARNING 02: maximum depth increased for Node 4962
  WARNING 02: maximum depth increased for Node 4963
  WARNING 02: maximum depth increased for Node 4964
  WARNING 02: maximum depth increased for Node 4965
  WARNING 02: maximum depth increased for Node 4966
  WARNING 02: maximum depth increased for Node 4968
  WARNING 02: maximum depth increased for Node 4969
  WARNING 02: maximum depth increased for Node 4970
  WARNING 02: maximum depth increased for Node 4971
  WARNING 02: maximum depth increased for Node 4972
  WARNING 02: maximum depth increased for Node 4973
  WARNING 02: maximum depth increased for Node 4974
  WARNING 02: maximum depth increased for Node 4980
  WARNING 02: maximum depth increased for Node 4981
  WARNING 02: maximum depth increased for Node 4982
  WARNING 02: maximum depth increased for Node 4983
  WARNING 02: maximum depth increased for Node 4984
  WARNING 02: maximum depth increased for Node 4985
  WARNING 02: maximum depth increased for Node 4986
  WARNING 02: maximum depth increased for Node 5001
  WARNING 02: maximum depth increased for Node 5005
  WARNING 02: maximum depth increased for Node 5006
  WARNING 02: maximum depth increased for Node 5007
  WARNING 02: maximum depth increased for Node 5008
  WARNING 02: maximum depth increased for Node 5009
  WARNING 02: maximum depth increased for Node 5010
  WARNING 02: maximum depth increased for Node 5011
  WARNING 02: maximum depth increased for Node 5012
  WARNING 02: maximum depth increased for Node 5020
  WARNING 02: maximum depth increased for Node 5021
  WARNING 02: maximum depth increased for Node 5022
  WARNING 02: maximum depth increased for Node 5023
  WARNING 02: maximum depth increased for Node 5024
  WARNING 02: maximum depth increased for Node 5025
  WARNING 02: maximum depth increased for Node 5026
  WARNING 02: maximum depth increased for Node 5027
  WARNING 02: maximum depth increased for Node 5028
  WARNING 02: maximum depth increased for Node 5029
  WARNING 02: maximum depth increased for Node 5060
  WARNING 02: maximum depth increased for Node 5061
  WARNING 02: maximum depth increased for Node 5062
  WARNING 02: maximum depth increased for Node 5063
  WARNING 02: maximum depth increased for Node 5064
  WARNING 02: maximum depth increased for Node 5065
  WARNING 02: maximum depth increased for Node 5066
  WARNING 02: maximum depth increased for Node 5067
  WARNING 02: maximum depth increased for Node 5068
  WARNING 02: maximum depth increased for Node 5069
  WARNING 02: maximum depth increased for Node 5070
  WARNING 02: maximum depth increased for Node 5071
  WARNING 02: maximum depth increased for Node 5072
  WARNING 02: maximum depth increased for Node 5073
  WARNING 02: maximum depth increased for Node 5074
  WARNING 02: maximum depth increased for Node 5075
  WARNING 02: maximum depth increased for Node 5076
  WARNING 02: maximum depth increased for Node 5077
  WARNING 02: maximum depth increased for Node 5078
  WARNING 02: maximum depth increased for Node 5079
  WARNING 02: maximum depth increased for Node 5080
  WARNING 02: maximum depth increased for Node 5081
  WARNING 02: maximum depth increased for Node 5082
  WARNING 02: maximum depth increased for Node 5083
  WARNING 02: maximum depth increased for Node 5084
  WARNING 02: maximum depth increased for Node 5085
  WARNING 02: maximum depth increased for Node 5086
  WARNING 02: maximum depth increased for Node 5088
  WARNING 02: maximum depth increased for Node 5089
  WARNING 02: maximum depth increased for Node 5090
  WARNING 02: maximum depth increased for Node 5091
  WARNING 02: maximum depth increased for Node 5092
  WARNING 02: maximum depth increased for Node 5093
  WARNING 02: maximum depth increased for Node 5094
  WARNING 02: maximum depth increased for Node 5095
  WARNING 02: maximum depth increased for Node 5096
  WARNING 02: maximum depth increased for Node 5097
  WARNING 02: maximum depth increased for Node 5098
  WARNING 02: maximum depth increased for Node 5099
  WARNING 02: maximum depth increased for Node 5100
  WARNING 02: maximum depth increased for Node 5101
  WARNING 02: maximum depth increased for Node 5102
  WARNING 02: maximum depth increased for Node 5103
  WARNING 02: maximum depth increased for Node 5104
  WARNING 02: maximum depth increased for Node 5105
  WARNING 02: maximum depth increased for Node 5106
  WARNING 02: maximum depth increased for Node 5107
  WARNING 02: maximum depth increased for Node 5108
  WARNING 02: maximum depth increased for Node 5109
  WARNING 02: maximum depth increased for Node 5110
  WARNING 02: maximum depth increased for Node 5111
  WARNING 02: maximum depth increased for Node 5112
  WARNING 02: maximum depth increased for Node 5143
  WARNING 02: maximum depth increased for Node 5144
  WARNING 02: maximum depth increased for Node 5145
  WARNING 02: maximum depth increased for Node 5146
  WARNING 02: maximum depth increased for Node 5147
  WARNING 02: maximum depth increased for Node 5148
  WARNING 02: maximum depth increased for Node 5149
  WARNING 02: maximum depth increased for Node 5150
  WARNING 02: maximum depth increased for Node 5151
  WARNING 02: maximum depth increased for Node 5152
  WARNING 02: maximum depth increased for Node 5153
  WARNING 02: maximum depth increased for Node 5154
  WARNING 02: maximum depth increased for Node 5155
  WARNING 02: maximum depth increased for Node 5156
  WARNING 02: maximum depth increased for Node 5157
  WARNING 02: maximum depth increased for Node 5158
  WARNING 02: maximum depth increased for Node 5159
  WARNING 02: maximum depth increased for Node 5160
  WARNING 02: maximum depth increased for Node 5161
  WARNING 02: maximum depth increased for Node 5162
  WARNING 02: maximum depth increased for Node 5163
  WARNING 02: maximum depth increased for Node 5166
  WARNING 02: maximum depth increased for Node 5167
  WARNING 02: maximum depth increased for Node 5168
  WARNING 02: maximum depth increased for Node 5169
  WARNING 02: maximum depth increased for Node 5170
  WARNING 02: maximum depth increased for Node 5171
  WARNING 02: maximum depth increased for Node 5172
  WARNING 02: maximum depth increased for Node 5173
  WARNING 02: maximum depth increased for Node 5174
  WARNING 02: maximum depth increased for Node 5175
  WARNING 02: maximum depth increased for Node 5176
  WARNING 02: maximum depth increased for Node 5177
  WARNING 02: maximum depth increased for Node 5178
  WARNING 02: maximum depth increased for Node 5179
  WARNING 02: maximum depth increased for Node 5180
  WARNING 02: maximum depth increased for Node 5181
  WARNING 02: maximum depth increased for Node 5182
  WARNING 02: maximum depth increased for Node 5183
  WARNING 02: maximum depth increased for Node 5184
  WARNING 02: maximum depth increased for Node 5185
  WARNING 02: maximum depth increased for Node 5186
  WARNING 02: maximum depth increased for Node 5187
  WARNING 02: maximum depth increased for Node 5188
  WARNING 02: maximum depth increased for Node 5189
  WARNING 02: maximum depth increased for Node 5190
  WARNING 02: maximum depth increased for Node 5191
  WARNING 02: maximum depth increased for Node 5192
  WARNING 02: maximum depth increased for Node 5193
  WARNING 02: maximum depth increased for Node 5194
  WARNING 02: maximum depth increased for Node 5195
  WARNING 02: maximum depth increased for Node 5196
  WARNING 02: maximum depth increased for Node 5197
  WARNING 02: maximum depth increased for Node 5198
  WARNING 02: maximum depth increased for Node 5199
  WARNING 02: maximum depth increased for Node 5200
  WARNING 02: maximum depth increased for Node 5201
  WARNING 02: maximum depth increased for Node 5202
  WARNING 02: maximum depth increased for Node 5203
  WARNING 02: maximum depth increased for Node 5204
  WARNING 02: maximum depth increased for Node 5205
  WARNING 02: maximum depth increased for Node 5206
  WARNING 02: maximum depth increased for Node 5207
  WARNING 02: maximum depth increased for Node 5208
  WARNING 02: maximum depth increased for Node 5209
  WARNING 02: maximum depth increased for Node 5210
  WARNING 02: maximum depth increased for Node 5211
  WARNING 02: maximum depth increased for Node 5212
  WARNING 02: maximum depth increased for Node 5213
  WARNING 02: maximum depth increased for Node 5214
  WARNING 02: maximum depth increased for Node 5215
  WARNING 02: maximum depth increased for Node 5216
  WARNING 02: maximum depth increased for Node 5219
  WARNING 02: maximum depth increased for Node 5220
  WARNING 02: maximum depth increased for Node 5221
  WARNING 02: maximum depth increased for Node 5222
  WARNING 02: maximum depth increased for Node 5223
  WARNING 02: maximum depth increased for Node 5224
  WARNING 02: maximum depth increased for Node 5225
  WARNING 02: maximum depth increased for Node 5226
  WARNING 02: maximum depth increased for Node 5227
  WARNING 02: maximum depth increased for Node 5228
  WARNING 02: maximum depth increased for Node 5230
  WARNING 02: maximum depth increased for Node 5231
  WARNING 02: maximum depth increased for Node 5232
  WARNING 02: maximum depth increased for Node 5233
  WARNING 02: maximum depth increased for Node 5234
  WARNING 02: maximum depth increased for Node 5235
  WARNING 02: maximum depth increased for Node 5236
  WARNING 02: maximum depth increased for Node 5237
  WARNING 02: maximum depth increased for Node 5238
  WARNING 02: maximum depth increased for Node 5239
  WARNING 02: maximum depth increased for Node 5240
  WARNING 02: maximum depth increased for Node 5241
  WARNING 02: maximum depth increased for Node 5242
  WARNING 02: maximum depth increased for Node 5243
  WARNING 02: maximum depth increased for Node 5244
  WARNING 02: maximum depth increased for Node 5245
  WARNING 02: maximum depth increased for Node 5246
  WARNING 02: maximum depth increased for Node 5247
  WARNING 02: maximum depth increased for Node 5248
  WARNING 02: maximum depth increased for Node 5249
  WARNING 02: maximum depth increased for Node 5250
  WARNING 02: maximum depth increased for Node 5251
  WARNING 02: maximum depth increased for Node 5252
  WARNING 02: maximum depth increased for Node 5253
  WARNING 02: maximum depth increased for Node 5254
  WARNING 02: maximum depth increased for Node 5255
  WARNING 02: maximum depth increased for Node 5256
  WARNING 02: maximum depth increased for Node 5257
  WARNING 02: maximum depth increased for Node 5258
  WARNING 02: maximum depth increased for Node 5259
  WARNING 02: maximum depth increased for Node 5260
  WARNING 02: maximum depth increased for Node 5261
  WARNING 02: maximum depth increased for Node 5262
  WARNING 02: maximum depth increased for Node 5265
  WARNING 02: maximum depth increased for Node 5266
  WARNING 02: maximum depth increased for Node 5267
  WARNING 02: maximum depth increased for Node 5268
  WARNING 02: maximum depth increased for Node 5269
  WARNING 02: maximum depth increased for Node 5270
  WARNING 02: maximum depth increased for Node 5271
  WARNING 02: maximum depth increased for Node 5272
  WARNING 02: maximum depth increased for Node 5273
  WARNING 02: maximum depth increased for Node 5274
  WARNING 02: maximum depth increased for Node 5275
  WARNING 02: maximum depth increased for Node 5276
  WARNING 02: maximum depth increased for Node 5277
  WARNING 02: maximum depth increased for Node 5278
  WARNING 02: maximum depth increased for Node 5280
  WARNING 02: maximum depth increased for Node 5281
  WARNING 02: maximum depth increased for Node 5289
  WARNING 02: maximum depth increased for Node 5290
  WARNING 02: maximum depth increased for Node 5292
  WARNING 02: maximum depth increased for Node 5316
  WARNING 02: maximum depth increased for Node 5318
  WARNING 02: maximum depth increased for Node 5319
  WARNING 02: maximum depth increased for Node 5320
  WARNING 02: maximum depth increased for Node 5323
  WARNING 02: maximum depth increased for Node 5324
  WARNING 02: maximum depth increased for Node 5325
  WARNING 02: maximum depth increased for Node 5326
  WARNING 02: maximum depth increased for Node 5327
  WARNING 02: maximum depth increased for Node 5328
  WARNING 02: maximum depth increased for Node 5329
  WARNING 02: maximum depth increased for Node 5330
  WARNING 02: maximum depth increased for Node 5331
  WARNING 02: maximum depth increased for Node 5332
  WARNING 02: maximum depth increased for Node 5334
  WARNING 02: maximum depth increased for Node 5335
  WARNING 02: maximum depth increased for Node 5336
  WARNING 02: maximum depth increased for Node 5344
  WARNING 02: maximum depth increased for Node 5345
  WARNING 02: maximum depth increased for Node 5346
  WARNING 02: maximum depth increased for Node 5347
  WARNING 02: maximum depth increased for Node 5348
  WARNING 02: maximum depth increased for Node 5349
  WARNING 02: maximum depth increased for Node 5350
  WARNING 02: maximum depth increased for Node 5351
  WARNING 02: maximum depth increased for Node 5352
  WARNING 02: maximum depth increased for Node 5353
  WARNING 02: maximum depth increased for Node 5354
  WARNING 02: maximum depth increased for Node 5355
  WARNING 02: maximum depth increased for Node 5356
  WARNING 02: maximum depth increased for Node 5357
  WARNING 02: maximum depth increased for Node 5358
  WARNING 02: maximum depth increased for Node 5359
  WARNING 02: maximum depth increased for Node 5360
  WARNING 02: maximum depth increased for Node 5361
  WARNING 02: maximum depth increased for Node 5362
  WARNING 02: maximum depth increased for Node 5363
  WARNING 02: maximum depth increased for Node 5364
  WARNING 02: maximum depth increased for Node 5365
  WARNING 02: maximum depth increased for Node 5366
  WARNING 02: maximum depth increased for Node 5367
  WARNING 02: maximum depth increased for Node 5368
  WARNING 02: maximum depth increased for Node 5369
  WARNING 02: maximum depth increased for Node 5370
  WARNING 02: maximum depth increased for Node 5371
  WARNING 02: maximum depth increased for Node 5372
  WARNING 02: maximum depth increased for Node 5373
  WARNING 02: maximum depth increased for Node 5374
  WARNING 02: maximum depth increased for Node 5375
  WARNING 02: maximum depth increased for Node 5379
  WARNING 02: maximum depth increased for Node 5380
  WARNING 02: maximum depth increased for Node 5381
  WARNING 02: maximum depth increased for Node 5382
  WARNING 02: maximum depth increased for Node 5383
  WARNING 02: maximum depth increased for Node 5384
  WARNING 02: maximum depth increased for Node 5385
  WARNING 02: maximum depth increased for Node 5386
  WARNING 02: maximum depth increased for Node 5387
  WARNING 02: maximum depth increased for Node 5389
  WARNING 02: maximum depth increased for Node 5390
  WARNING 02: maximum depth increased for Node 5391
  WARNING 02: maximum depth increased for Node 5392
  WARNING 02: maximum depth increased for Node 5393
  WARNING 02: maximum depth increased for Node 5394
  WARNING 02: maximum depth increased for Node 5395
  WARNING 02: maximum depth increased for Node 5396
  WARNING 02: maximum depth increased for Node 5398
  WARNING 02: maximum depth increased for Node 5399
  WARNING 02: maximum depth increased for Node 5412
  WARNING 02: maximum depth increased for Node 5413
  WARNING 02: maximum depth increased for Node 5414
  WARNING 02: maximum depth increased for Node 5415
  WARNING 02: maximum depth increased for Node 5416
  WARNING 02: maximum depth increased for Node 5418
  WARNING 02: maximum depth increased for Node 5419
  WARNING 02: maximum depth increased for Node 5420
  WARNING 02: maximum depth increased for Node 5421
  WARNING 02: maximum depth increased for Node 5422
  WARNING 02: maximum depth increased for Node 5423
  WARNING 02: maximum depth increased for Node 5424
  WARNING 02: maximum depth increased for Node 5426
  WARNING 02: maximum depth increased for Node 5427
  WARNING 02: maximum depth increased for Node 5428
  WARNING 02: maximum depth increased for Node 5429
  WARNING 02: maximum depth increased for Node 5430
  WARNING 02: maximum depth increased for Node 5431
  WARNING 02: maximum depth increased for Node 5432
  WARNING 02: maximum depth increased for Node 5433
  WARNING 02: maximum depth increased for Node 5434
  WARNING 02: maximum depth increased for Node 5435
  WARNING 02: maximum depth increased for Node 5436
  WARNING 02: maximum depth increased for Node 5437
  WARNING 02: maximum depth increased for Node 5438
  WARNING 02: maximum depth increased for Node 5439
  WARNING 02: maximum depth increased for Node 5440
  WARNING 02: maximum depth increased for Node 5441
  WARNING 02: maximum depth increased for Node 5442
  WARNING 02: maximum depth increased for Node 5443
  WARNING 02: maximum depth increased for Node 5444
  WARNING 02: maximum depth increased for Node 5445
  WARNING 02: maximum depth increased for Node 5446
  WARNING 02: maximum depth increased for Node 5447
  WARNING 02: maximum depth increased for Node 5448
  WARNING 02: maximum depth increased for Node 5449
  WARNING 02: maximum depth increased for Node 5450
  WARNING 02: maximum depth increased for Node 5451
  WARNING 02: maximum depth increased for Node 5452
  WARNING 02: maximum depth increased for Node 5453
  WARNING 02: maximum depth increased for Node 5454
  WARNING 02: maximum depth increased for Node 5456
  WARNING 02: maximum depth increased for Node 5457
  WARNING 02: maximum depth increased for Node 5458
  WARNING 02: maximum depth increased for Node 5459
  WARNING 02: maximum depth increased for Node 5460
  WARNING 02: maximum depth increased for Node 5461
  WARNING 02: maximum depth increased for Node 5463
  WARNING 02: maximum depth increased for Node 5500
  WARNING 02: maximum depth increased for Node 5501
  WARNING 02: maximum depth increased for Node 5502
  WARNING 02: maximum depth increased for Node 5503
  WARNING 02: maximum depth increased for Node 5504
  WARNING 02: maximum depth increased for Node 5505
  WARNING 02: maximum depth increased for Node 5506
  WARNING 02: maximum depth increased for Node 5507
  WARNING 02: maximum depth increased for Node 5508
  WARNING 02: maximum depth increased for Node 5509
  WARNING 02: maximum depth increased for Node 5510
  WARNING 02: maximum depth increased for Node 5511
  WARNING 02: maximum depth increased for Node 5512
  WARNING 02: maximum depth increased for Node 5513
  WARNING 02: maximum depth increased for Node 5514
  WARNING 02: maximum depth increased for Node 5515
  WARNING 02: maximum depth increased for Node 5516
  WARNING 02: maximum depth increased for Node 5517
  WARNING 02: maximum depth increased for Node 5518
  WARNING 02: maximum depth increased for Node 5519
  WARNING 02: maximum depth increased for Node 5521
  WARNING 02: maximum depth increased for Node 5522
  WARNING 02: maximum depth increased for Node 5523
  WARNING 02: maximum depth increased for Node 5547
  WARNING 02: maximum depth increased for Node 5548
  WARNING 02: maximum depth increased for Node 5549
  WARNING 02: maximum depth increased for Node 5550
  WARNING 02: maximum depth increased for Node 5551
  WARNING 02: maximum depth increased for Node 5552
  WARNING 02: maximum depth increased for Node 5553
  WARNING 02: maximum depth increased for Node 5554
  WARNING 02: maximum depth increased for Node 5555
  WARNING 02: maximum depth increased for Node 5556
  WARNING 02: maximum depth increased for Node 5557
  WARNING 02: maximum depth increased for Node 5558
  WARNING 02: maximum depth increased for Node 5564
  WARNING 02: maximum depth increased for Node 5565
  WARNING 02: maximum depth increased for Node 5566
  WARNING 02: maximum depth increased for Node 5567
  WARNING 02: maximum depth increased for Node 5568
  WARNING 02: maximum depth increased for Node 5569
  WARNING 02: maximum depth increased for Node 5570
  WARNING 02: maximum depth increased for Node 5571
  WARNING 02: maximum depth increased for Node 5572
  WARNING 02: maximum depth increased for Node 5573
  WARNING 02: maximum depth increased for Node 5574
  WARNING 02: maximum depth increased for Node 5575
  WARNING 02: maximum depth increased for Node 5576
  WARNING 02: maximum depth increased for Node 5577
  WARNING 02: maximum depth increased for Node 5578
  WARNING 02: maximum depth increased for Node 5579
  WARNING 02: maximum depth increased for Node 5580
  WARNING 02: maximum depth increased for Node 5581
  WARNING 02: maximum depth increased for Node 5582
  WARNING 02: maximum depth increased for Node 5583
  WARNING 02: maximum depth increased for Node 5584
  WARNING 02: maximum depth increased for Node 5585
  WARNING 02: maximum depth increased for Node 5586
  WARNING 02: maximum depth increased for Node 5588
  WARNING 02: maximum depth increased for Node 5589
  WARNING 02: maximum depth increased for Node 5590
  WARNING 02: maximum depth increased for Node 5591
  WARNING 02: maximum depth increased for Node 5592
  WARNING 02: maximum depth increased for Node 5593
  WARNING 02: maximum depth increased for Node 5594
  WARNING 02: maximum depth increased for Node 5595
  WARNING 02: maximum depth increased for Node 5596
  WARNING 02: maximum depth increased for Node 5597
  WARNING 02: maximum depth increased for Node 5598
  WARNING 02: maximum depth increased for Node 5599
  WARNING 02: maximum depth increased for Node 5600
  WARNING 02: maximum depth increased for Node 5601
  WARNING 02: maximum depth increased for Node 5602
  WARNING 02: maximum depth increased for Node 5603
  WARNING 02: maximum depth increased for Node 5604
  WARNING 02: maximum depth increased for Node 5605
  WARNING 02: maximum depth increased for Node 5606
  WARNING 02: maximum depth increased for Node 5608
  WARNING 02: maximum depth increased for Node 5609
  WARNING 02: maximum depth increased for Node 5610
  WARNING 02: maximum depth increased for Node 5611
  WARNING 02: maximum depth increased for Node 5612
  WARNING 02: maximum depth increased for Node 5613
  WARNING 02: maximum depth increased for Node 5615
  WARNING 02: maximum depth increased for Node 5616
  WARNING 02: maximum depth increased for Node 5617
  WARNING 02: maximum depth increased for Node 5618
  WARNING 02: maximum depth increased for Node 5619
  WARNING 02: maximum depth increased for Node 5620
  WARNING 02: maximum depth increased for Node 5621
  WARNING 02: maximum depth increased for Node 5622
  WARNING 02: maximum depth increased for Node 5623
  WARNING 02: maximum depth increased for Node 5624
  WARNING 02: maximum depth increased for Node 5625
  WARNING 02: maximum depth increased for Node 5626
  WARNING 02: maximum depth increased for Node 5627
  WARNING 02: maximum depth increased for Node 5628
  WARNING 02: maximum depth increased for Node 5629
  WARNING 02: maximum depth increased for Node 5630
  WARNING 02: maximum depth increased for Node 5631
  WARNING 02: maximum depth increased for Node 5632
  WARNING 02: maximum depth increased for Node 5633
  WARNING 02: maximum depth increased for Node 5634
  WARNING 02: maximum depth increased for Node 5656
  WARNING 02: maximum depth increased for Node 5657
  WARNING 02: maximum depth increased for Node 5658
  WARNING 02: maximum depth increased for Node 5659
  WARNING 02: maximum depth increased for Node 5660
  WARNING 02: maximum depth increased for Node 5661
  WARNING 02: maximum depth increased for Node 5662
  WARNING 02: maximum depth increased for Node 5663
  WARNING 02: maximum depth increased for Node 5665
  WARNING 02: maximum depth increased for Node 5667
  WARNING 02: maximum depth increased for Node 5668
  WARNING 02: maximum depth increased for Node 5669
  WARNING 02: maximum depth increased for Node 5670
  WARNING 02: maximum depth increased for Node 5671
  WARNING 02: maximum depth increased for Node 5673
  WARNING 02: maximum depth increased for Node 5674
  WARNING 02: maximum depth increased for Node 5675
  WARNING 02: maximum depth increased for Node 5676
  WARNING 02: maximum depth increased for Node 5677
  WARNING 02: maximum depth increased for Node 5680
  WARNING 02: maximum depth increased for Node 5681
  WARNING 02: maximum depth increased for Node 5683
  WARNING 02: maximum depth increased for Node 5684
  WARNING 02: maximum depth increased for Node 5685
  WARNING 02: maximum depth increased for Node 5686
  WARNING 02: maximum depth increased for Node 5687
  WARNING 02: maximum depth increased for Node 5688
  WARNING 02: maximum depth increased for Node 5689
  WARNING 02: maximum depth increased for Node 5690
  WARNING 02: maximum depth increased for Node 5692
  WARNING 02: maximum depth increased for Node 5693
  WARNING 02: maximum depth increased for Node 5694
  WARNING 02: maximum depth increased for Node 5695
  WARNING 02: maximum depth increased for Node 5696
  WARNING 02: maximum depth increased for Node 5697
  WARNING 02: maximum depth increased for Node 5698
  WARNING 02: maximum depth increased for Node 5699
  WARNING 02: maximum depth increased for Node 5700
  WARNING 02: maximum depth increased for Node 5701
  WARNING 02: maximum depth increased for Node 5702
  WARNING 02: maximum depth increased for Node 5760
  WARNING 02: maximum depth increased for Node 5761
  WARNING 02: maximum depth increased for Node 5762
  WARNING 02: maximum depth increased for Node 5763
  WARNING 02: maximum depth increased for Node 5764
  WARNING 02: maximum depth increased for Node 5765
  WARNING 02: maximum depth increased for Node 5766
  WARNING 02: maximum depth increased for Node 5767
  WARNING 02: maximum depth increased for Node 5768
  WARNING 02: maximum depth increased for Node 5769
  WARNING 02: maximum depth increased for Node 5770
  WARNING 02: maximum depth increased for Node 5776
  WARNING 02: maximum depth increased for Node 5777
  WARNING 02: maximum depth increased for Node 5778
  WARNING 02: maximum depth increased for Node 5779
  WARNING 02: maximum depth increased for Node 5780
  WARNING 02: maximum depth increased for Node 5782
  WARNING 02: maximum depth increased for Node 5783
  WARNING 02: maximum depth increased for Node 5786
  WARNING 02: maximum depth increased for Node 5787
  WARNING 02: maximum depth increased for Node 5789
  WARNING 02: maximum depth increased for Node 5790
  WARNING 02: maximum depth increased for Node 5791
  WARNING 02: maximum depth increased for Node 5792
  WARNING 02: maximum depth increased for Node 5793
  WARNING 02: maximum depth increased for Node 5795
  WARNING 02: maximum depth increased for Node 5796
  WARNING 02: maximum depth increased for Node 5797
  WARNING 02: maximum depth increased for Node 5798
  WARNING 02: maximum depth increased for Node 5799
  WARNING 02: maximum depth increased for Node 5800
  WARNING 02: maximum depth increased for Node 5801
  WARNING 02: maximum depth increased for Node 5802
  WARNING 02: maximum depth increased for Node 5803
  WARNING 02: maximum depth increased for Node 5804
  WARNING 02: maximum depth increased for Node 5805
  WARNING 02: maximum depth increased for Node 5806
  WARNING 02: maximum depth increased for Node 5807
  WARNING 02: maximum depth increased for Node 5808
  WARNING 02: maximum depth increased for Node 5810
  WARNING 02: maximum depth increased for Node 5811
  WARNING 02: maximum depth increased for Node 5812
  WARNING 02: maximum depth increased for Node 5815
  WARNING 02: maximum depth increased for Node 5816
  WARNING 02: maximum depth increased for Node 5817
  WARNING 02: maximum depth increased for Node 5825
  WARNING 02: maximum depth increased for Node 5826
  WARNING 02: maximum depth increased for Node 5827
  WARNING 02: maximum depth increased for Node 5828
  WARNING 02: maximum depth increased for Node 5862
  WARNING 02: maximum depth increased for Node 5863
  WARNING 02: maximum depth increased for Node 5864
  WARNING 02: maximum depth increased for Node 5865
  WARNING 02: maximum depth increased for Node 5866
  WARNING 02: maximum depth increased for Node 5867
  WARNING 02: maximum depth increased for Node 5868
  WARNING 02: maximum depth increased for Node 5870
  WARNING 02: maximum depth increased for Node 5871
  WARNING 02: maximum depth increased for Node 5872
  WARNING 02: maximum depth increased for Node 5873
  WARNING 02: maximum depth increased for Node 5874
  WARNING 02: maximum depth increased for Node 5875
  WARNING 02: maximum depth increased for Node 5876
  WARNING 02: maximum depth increased for Node 5877
  WARNING 02: maximum depth increased for Node 5878
  WARNING 02: maximum depth increased for Node 5879
  WARNING 02: maximum depth increased for Node 5880
  WARNING 02: maximum depth increased for Node 5881
  WARNING 02: maximum depth increased for Node 5882
  WARNING 02: maximum depth increased for Node 5883
  WARNING 02: maximum depth increased for Node 5884
  WARNING 02: maximum depth increased for Node 5885
  WARNING 02: maximum depth increased for Node 5886
  WARNING 02: maximum depth increased for Node 5887
  WARNING 02: maximum depth increased for Node 5888
  WARNING 02: maximum depth increased for Node 5889
  WARNING 02: maximum depth increased for Node 5894
  WARNING 02: maximum depth increased for Node 5895
  WARNING 02: maximum depth increased for Node 5896
  WARNING 02: maximum depth increased for Node 5897
  WARNING 02: maximum depth increased for Node 5898
  WARNING 02: maximum depth increased for Node 5899
  WARNING 02: maximum depth increased for Node 5900
  WARNING 02: maximum depth increased for Node 5901
  WARNING 02: maximum depth increased for Node 5902
  WARNING 02: maximum depth increased for Node 5903
  WARNING 02: maximum depth increased for Node 5904
  WARNING 02: maximum depth increased for Node 5905
  WARNING 02: maximum depth increased for Node 5906
  WARNING 02: maximum depth increased for Node 5907
  WARNING 02: maximum depth increased for Node 5908
  WARNING 02: maximum depth increased for Node 5909
  WARNING 02: maximum depth increased for Node 5910
  WARNING 02: maximum depth increased for Node 5911
  WARNING 02: maximum depth increased for Node 5912
  WARNING 02: maximum depth increased for Node 5913
  WARNING 02: maximum depth increased for Node 5914
  WARNING 02: maximum depth increased for Node 5915
  WARNING 02: maximum depth increased for Node 5916
  WARNING 02: maximum depth increased for Node 5917
  WARNING 02: maximum depth increased for Node 5918
  WARNING 02: maximum depth increased for Node 5919
  WARNING 02: maximum depth increased for Node 5920
  WARNING 02: maximum depth increased for Node 5921
  WARNING 02: maximum depth increased for Node 5922
  WARNING 02: maximum depth increased for Node 5923
  WARNING 02: maximum depth increased for Node 5924
  WARNING 02: maximum depth increased for Node 5925
  WARNING 02: maximum depth increased for Node 5926
  WARNING 02: maximum depth increased for Node 5927
  WARNING 02: maximum depth increased for Node 5928
  WARNING 02: maximum depth increased for Node 5929
  WARNING 02: maximum depth increased for Node 5930
  WARNING 02: maximum depth increased for Node 5931
  WARNING 02: maximum depth increased for Node 5932
  WARNING 02: maximum depth increased for Node 5933
  WARNING 02: maximum depth increased for Node 5934
  WARNING 02: maximum depth increased for Node 5935
  WARNING 02: maximum depth increased for Node 5936
  WARNING 02: maximum depth increased for Node 5937
  WARNING 02: maximum depth increased for Node 5938
  WARNING 02: maximum depth increased for Node 5939
  WARNING 02: maximum depth increased for Node 5940
  WARNING 02: maximum depth increased for Node 5941
  WARNING 02: maximum depth increased for Node 5942
  WARNING 02: maximum depth increased for Node 5943
  WARNING 02: maximum depth increased for Node 5944
  WARNING 02: maximum depth increased for Node 5945
  WARNING 02: maximum depth increased for Node 5946
  WARNING 02: maximum depth increased for Node 5947
  WARNING 02: maximum depth increased for Node 5948
  WARNING 02: maximum depth increased for Node 5949
  WARNING 02: maximum depth increased for Node 5950
  WARNING 02: maximum depth increased for Node 5951
  WARNING 02: maximum depth increased for Node 5952
  WARNING 02: maximum depth increased for Node 5953
  WARNING 02: maximum depth increased for Node 5954
  WARNING 02: maximum depth increased for Node 5955
  WARNING 02: maximum depth increased for Node 5956
  WARNING 02: maximum depth increased for Node 5982
  WARNING 02: maximum depth increased for Node 5986
  WARNING 02: maximum depth increased for Node 5987
  WARNING 02: maximum depth increased for Node 5988
[...]
  6596                    1.00   1.00  0.00  0.00  0.00  0.00  0.00  0.00  0.00  0.00
  6597                    1.00   1.00  0.00  0.00  0.00  0.00  0.00  0.00  0.00  0.00
  6598                    1.00   1.00  0.00  0.00  0.00  0.00  0.00  0.00  0.00  0.00
  6599                    1.00   1.00  0.00  0.00  0.00  0.00  0.00  0.00  0.00  0.00
  6600                    1.00   1.00  0.00  0.00  0.00  0.00  0.00  0.00  0.00  0.00
  6601                    1.00   1.00  0.00  0.00  0.00  0.00  0.00  0.00  0.00  0.00
  6602                    1.00   1.00  0.00  0.00  0.00  0.00  0.00  0.00  0.00  0.00
  6603                    1.00   1.00  0.00  0.00  0.00  0.00  0.00  0.00  0.00  0.00
  6604                    1.00   1.00  0.00  0.00  0.00  0.00  0.00  0.00  0.00  0.00
  6605                    1.00   1.00  0.00  0.00  0.00  0.00  0.00  0.00  0.00  0.00
  6606                    1.00   1.00  0.00  0.00  0.00  0.00  0.00  0.00  0.00  0.00
  6607                    1.00   1.00  0.00  0.00  0.00  0.00  0.00  0.00  0.00  0.00
  6608                    1.00   1.00  0.00  0.00  0.00  0.00  0.00  0.00  0.00  0.00
  6609                    1.00   1.00  0.00  0.00  0.00  0.00  0.00  0.00  0.00  0.00
  6610                    1.00   1.00  0.00  0.00  0.00  0.00  0.00  0.00  0.00  0.00
  6611                    1.00   1.00  0.00  0.00  0.00  0.00  0.00  0.00  0.00  0.00
  6612                    1.00   1.00  0.00  0.00  0.00  0.00  0.00  0.00  0.00  0.00
  6613                    1.00   1.00  0.00  0.00  0.00  0.00  0.00  0.00  0.00  0.00
  6614                    1.00   1.00  0.00  0.00  0.00  0.00  0.00  0.00  0.00  0.00
  6615                    1.00   1.00  0.00  0.00  0.00  0.00  0.00  0.00  0.00  0.00
  6616                    1.00   1.00  0.00  0.00  0.00  0.00  0.00  0.00  0.00  0.00
  6617                    1.00   1.00  0.00  0.00  0.00  0.00  0.00  0.00  0.00  0.00
  6619                    1.00   1.00  0.00  0.00  0.00  0.00  0.00  0.00  0.00  0.00
  6620                    1.00   1.00  0.00  0.00  0.00  0.00  0.00  0.00  0.00  0.00
  6621                    1.00   1.00  0.00  0.00  0.00  0.00  0.00  0.00  0.00  0.00
  6622                    1.00   1.00  0.00  0.00  0.00  0.00  0.00  0.00  0.00  0.00
  6623                    1.00   1.00  0.00  0.00  0.00  0.00  0.00  0.00  0.00  0.00
  6624                    1.00   1.00  0.00  0.00  0.00  0.00  0.00  0.00  0.00  0.00
  6625                    1.00   1.00  0.00  0.00  0.00  0.00  0.00  0.00  0.00  0.00
  6626                    1.00   1.00  0.00  0.00  0.00  0.00  0.00  0.00  0.00  0.00
  6627                    1.00   1.00  0.00  0.00  0.00  0.00  0.00  0.00  0.00  0.00
  6629                   60.47   1.00  0.00  0.00  0.00  0.00  0.00  0.00  0.00  0.00
  6654                    1.00   1.00  0.00  0.00  0.00  0.00  0.00  0.00  0.00  0.00
  6660                    1.00   1.00  0.00  0.00  0.00  0.00  0.00  0.00  0.00  0.00
  6661                    1.00   1.00  0.00  0.00  0.00  0.00  0.00  0.00  0.00  0.00
  6662                    1.00   1.00  0.00  0.00  0.00  0.00  0.00  0.00  0.00  0.00
  6663                    1.00   1.00  0.00  0.00  0.00  0.00  0.00  0.00  0.00  0.00
  6664                    1.00   1.00  0.00  0.00  0.00  0.00  0.00  0.00  0.00  0.00
  6665                    1.00   1.00  0.00  0.00  0.00  0.00  0.00  0.00  0.00  0.00
  6744                    1.00   1.00  0.00  0.00  0.00  0.00  0.00  0.00  0.00  0.00
  6747                    1.00   1.00  0.00  0.00  0.00  0.00  0.00  0.00  0.00  0.00
  6751                    1.00   1.00  0.00  0.00  0.00  0.00  0.00  0.00  0.00  0.00
  6752                    1.00   1.00  0.00  0.00  0.00  0.00  0.00  0.00  0.00  0.00
  6753                    1.00   1.00  0.00  0.00  0.00  0.00  0.00  0.00  0.00  0.00
  6754                    1.00   1.00  0.00  0.00  0.00  0.00  0.00  0.00  0.00  0.00
  6756                    1.00   1.00  0.00  0.00  0.00  0.00  0.00  0.00  0.00  0.00
  6757                    1.00   1.00  0.00  0.00  0.00  0.00  0.00  0.00  0.00  0.00
  6758                    1.00   1.00  0.00  0.00  0.00  0.00  0.00  0.00  0.00  0.00
  6759                    1.00   1.00  0.00  0.00  0.00  0.00  0.00  0.00  0.00  0.00
  6760                    1.00   1.00  0.00  0.00  0.00  0.00  0.00  0.00  0.00  0.00
  6761                    1.00   1.00  0.00  0.00  0.00  0.00  0.00  0.00  0.00  0.00
  6762                    1.00   1.00  0.00  0.00  0.00  0.00  0.00  0.00  0.00  0.00
  6764                    1.00   1.00  0.00  0.00  0.00  0.00  0.00  0.00  0.00  0.00
  6767                    1.00   1.00  0.00  0.00  0.00  0.00  0.00  0.00  0.00  0.00
  6769                    1.00   1.00  0.00  0.00  0.00  0.00  0.00  0.00  0.00  0.00
  6770                    1.00   1.00  0.00  0.00  0.00  0.00  0.00  0.00  0.00  0.00
  6771                    1.00   1.00  0.00  0.00  0.00  0.00  0.00  0.00  0.00  0.00
  6772                   25.85   1.00  0.00  0.00  0.00  0.00  0.00  0.00  0.00  0.00
  6774                    1.00   1.00  0.00  0.00  0.00  0.00  0.00  0.00  0.00  0.00
  6775                    1.00   1.00  0.00  0.00  0.00  0.00  0.00  0.00  0.00  0.00
  6776                    1.00   1.00  0.00  0.00  0.00  0.00  0.00  0.00  0.00  0.00
  6777                    1.00   1.00  0.00  0.00  0.00  0.00  0.00  0.00  0.00  0.00
  6778                    1.00   1.00  0.00  0.00  0.00  0.00  0.00  0.00  0.00  0.00
  6779                    1.00   1.00  0.00  0.00  0.00  0.00  0.00  0.00  0.00  0.00
  6780                    1.00   1.00  0.00  0.00  0.00  0.00  0.00  0.00  0.00  0.00
  6781                    1.00   1.00  0.00  0.00  0.00  0.00  0.00  0.00  0.00  0.00
  6783                    1.00   1.00  0.00  0.00  0.00  0.00  0.00  0.00  0.00  0.00
  6784                    1.00   1.00  0.00  0.00  0.00  0.00  0.00  0.00  0.00  0.00
  6785                    1.00   1.00  0.00  0.00  0.00  0.00  0.00  0.00  0.00  0.00
  6786                    1.00   1.00  0.00  0.00  0.00  0.00  0.00  0.00  0.00  0.00
  6788                    1.00   1.00  0.00  0.00  0.00  0.00  0.00  0.00  0.00  0.00
  6789                    1.00   1.00  0.00  0.00  0.00  0.00  0.00  0.00  0.00  0.00
  6790                    1.00   1.00  0.00  0.00  0.00  0.00  0.00  0.00  0.00  0.00
  6791                    1.00   1.00  0.00  0.00  0.00  0.00  0.00  0.00  0.00  0.00
  6792                    1.00   1.00  0.00  0.00  0.00  0.00  0.00  0.00  0.00  0.00
  6793                    1.00   1.00  0.00  0.00  0.00  0.00  0.00  0.00  0.00  0.00
  6794                    1.00   1.00  0.00  0.00  0.00  0.00  0.00  0.00  0.00  0.00
  6795                    1.00   1.00  0.00  0.00  0.00  0.00  0.00  0.00  0.00  0.00
  6796                    1.00   1.00  0.00  0.00  0.00  0.00  0.00  0.00  0.00  0.00
  6798                    1.07   1.00  0.00  0.00  0.00  0.00  0.00  0.00  0.00  0.00
  6799                    1.00   1.00  0.00  0.00  0.00  0.00  0.00  0.00  0.00  0.00
  6800                    1.00   1.00  0.00  0.00  0.00  0.00  0.00  0.00  0.00  0.00
  6801                    1.00   1.00  0.00  0.00  0.00  0.00  0.00  0.00  0.00  0.00
  6802                    1.00   1.00  0.00  0.00  0.00  0.00  0.00  0.00  0.00  0.00
  6803                    1.00   1.00  0.00  0.00  0.00  0.00  0.00  0.00  0.00  0.00
  6807                    1.00   1.00  0.00  0.00  0.00  0.00  0.00  0.00  0.00  0.00
  6808                    1.00   1.00  0.00  0.00  0.00  0.00  0.00  0.00  0.00  0.00
  6809                    1.00   1.00  0.00  0.00  0.00  0.00  0.00  0.00  0.00  0.00
  6810                    1.00   1.00  0.00  0.00  0.00  0.00  0.00  0.00  0.00  0.00
  6811                    1.00   1.00  0.00  0.00  0.00  0.00  0.00  0.00  0.00  0.00
  6812                    1.00   1.00  0.00  0.00  0.00  0.00  0.00  0.00  0.00  0.00
  6813                    1.00   1.00  0.00  0.00  0.00  0.00  0.00  0.00  0.00  0.00
  6815                    1.00   1.00  0.00  0.00  0.00  0.00  0.00  0.00  0.00  0.00
  6816                    1.00   1.00  0.00  0.00  0.00  0.00  0.00  0.00  0.00  0.00
  6820                    1.00   1.00  0.00  0.00  0.00  0.00  0.00  0.00  0.00  0.00
  6821                    1.00   1.00  0.00  0.00  0.00  0.00  0.00  0.00  0.00  0.00
  6822                    1.00   1.00  0.00  0.00  0.00  0.00  0.00  0.00  0.00  0.00
  6825                    1.00   1.00  0.00  0.00  0.00  0.00  0.00  0.00  0.00  0.00
  6829                    1.00   1.00  0.00  0.00  0.00  0.00  0.00  0.00  0.00  0.00
  6830                    1.00   1.00  0.00  0.00  0.00  0.00  0.00  0.00  0.00  0.00
  6831                    1.00   1.00  0.00  0.00  0.00  0.00  0.00  0.00  0.00  0.00
  6832                    1.00   1.00  0.00  0.00  0.00  0.00  0.00  0.00  0.00  0.00
  6833                    1.00   1.00  0.00  0.00  0.00  0.00  0.00  0.00  0.00  0.00
  6834                    1.00   1.00  0.00  0.00  0.00  0.00  0.00  0.00  0.00  0.00
  6835                    1.00   1.00  0.00  0.00  0.00  0.00  0.00  0.00  0.00  0.00
  6836                    1.00   1.00  0.00  0.00  0.00  0.00  0.00  0.00  0.00  0.00
  6837                    1.00   1.00  0.00  0.00  0.00  0.00  0.00  0.00  0.00  0.00
  6838                    1.00   1.00  0.00  0.00  0.00  0.00  0.00  0.00  0.00  0.00
  6839                    1.00   1.00  0.00  0.00  0.00  0.00  0.00  0.00  0.00  0.00
  6840                    1.00   1.00  0.00  0.00  0.00  0.00  0.00  0.00  0.00  0.00
  6841                    1.00   1.00  0.00  0.00  0.00  0.00  0.00  0.00  0.00  0.00
  6842                    1.00   1.00  0.00  0.00  0.00  0.00  0.00  0.00  0.00  0.00
  6843                    1.00   1.00  0.00  0.00  0.00  0.00  0.00  0.00  0.00  0.00
  6844                    1.00   1.00  0.00  0.00  0.00  0.00  0.00  0.00  0.00  0.00
  6845                    1.00   1.00  0.00  0.00  0.00  0.00  0.00  0.00  0.00  0.00
  6846                    1.00   1.00  0.00  0.00  0.00  0.00  0.00  0.00  0.00  0.00
  6847                    1.00   1.00  0.00  0.00  0.00  0.00  0.00  0.00  0.00  0.00
  6848                    1.00   1.00  0.00  0.00  0.00  0.00  0.00  0.00  0.00  0.00
  6849                    1.00   1.00  0.00  0.00  0.00  0.00  0.00  0.00  0.00  0.00
  6850                    1.00   1.00  0.00  0.00  0.00  0.00  0.00  0.00  0.00  0.00
  6851                    1.00   1.00  0.00  0.00  0.00  0.00  0.00  0.00  0.00  0.00
  6852                    1.00   1.00  0.00  0.00  0.00  0.00  0.00  0.00  0.00  0.00
  6855                    1.00   1.00  0.00  0.00  0.00  0.00  0.00  0.00  0.00  0.00
  6856                    1.00   1.00  0.00  0.00  0.00  0.00  0.00  0.00  0.00  0.00
  6857                    1.00   1.00  0.00  0.00  0.00  0.00  0.00  0.00  0.00  0.00
  6858                    1.00   1.00  0.00  0.00  0.00  0.00  0.00  0.00  0.00  0.00
  6859                    1.00   1.00  0.00  0.00  0.00  0.00  0.00  0.00  0.00  0.00
  6860                    1.00   1.00  0.00  0.00  0.00  0.00  0.00  0.00  0.00  0.00
  6861                    1.00   1.00  0.00  0.00  0.00  0.00  0.00  0.00  0.00  0.00
  6862                    1.00   1.00  0.00  0.00  0.00  0.00  0.00  0.00  0.00  0.00
  6863                    1.00   1.00  0.00  0.00  0.00  0.00  0.00  0.00  0.00  0.00
  6864                    1.00   1.00  0.00  0.00  0.00  0.00  0.00  0.00  0.00  0.00
  6866                    1.00   1.00  0.00  0.00  0.00  0.00  0.00  0.00  0.00  0.00
  6868                    1.00   1.00  0.00  0.00  0.00  0.00  0.00  0.00  0.00  0.00
  6869                    1.00   1.00  0.00  0.00  0.00  0.00  0.00  0.00  0.00  0.00
  6870                    1.00   1.00  0.00  0.00  0.00  0.00  0.00  0.00  0.00  0.00
  6872                    1.00   1.00  0.00  0.00  0.00  0.00  0.00  0.00  0.00  0.00
  6873                    1.00   1.00  0.00  0.00  0.00  0.00  0.00  0.00  0.00  0.00
  6874                    1.00   1.00  0.00  0.00  0.00  0.00  0.00  0.00  0.00  0.00
  6875                    1.00   1.00  0.00  0.00  0.00  0.00  0.00  0.00  0.00  0.00
  6876                    1.00   1.00  0.00  0.00  0.00  0.00  0.00  0.00  0.00  0.00
  6877                    1.00   1.00  0.00  0.00  0.00  0.00  0.00  0.00  0.00  0.00
  6878                    1.00   1.00  0.00  0.00  0.00  0.00  0.00  0.00  0.00  0.00
  6879                    1.00   1.00  0.00  0.00  0.00  0.00  0.00  0.00  0.00  0.00
  6880                    1.00   1.00  0.00  0.00  0.00  0.00  0.00  0.00  0.00  0.00
  6881                    1.00   1.00  0.00  0.00  0.00  0.00  0.00  0.00  0.00  0.00
  6882                    1.00   1.00  0.00  0.00  0.00  0.00  0.00  0.00  0.00  0.00
  6884                    1.00   1.00  0.00  0.00  0.00  0.00  0.00  0.00  0.00  0.00
  6885                    1.00   1.00  0.00  0.00  0.00  0.00  0.00  0.00  0.00  0.00
  6886                    1.00   1.00  0.00  0.00  0.00  0.00  0.00  0.00  0.00  0.00
  6887                    1.00   1.00  0.00  0.00  0.00  0.00  0.00  0.00  0.00  0.00
  6888                    1.00   1.00  0.00  0.00  0.00  0.00  0.00  0.00  0.00  0.00
  6889                    1.00   1.00  0.00  0.00  0.00  0.00  0.00  0.00  0.00  0.00
  6890                    1.00   1.00  0.00  0.00  0.00  0.00  0.00  0.00  0.00  0.00
  6891                   12.20   1.00  0.00  0.00  0.00  0.00  0.00  0.00  0.00  0.00
  6892                    1.00   1.00  0.00  0.00  0.00  0.00  0.00  0.00  0.00  0.00
  6893                    1.00   1.00  0.00  0.00  0.00  0.00  0.00  0.00  0.00  0.00
  6894                    1.00   1.00  0.00  0.00  0.00  0.00  0.00  0.00  0.00  0.00
  6895                    1.00   1.00  0.00  0.00  0.00  0.00  0.00  0.00  0.00  0.00
  6896                    1.00   1.00  0.00  0.00  0.00  0.00  0.00  0.00  0.00  0.00
  6897                    1.00   1.00  0.00  0.00  0.00  0.00  0.00  0.00  0.00  0.00
  6898                    1.00   1.00  0.00  0.00  0.00  0.00  0.00  0.00  0.00  0.00
  6899                    1.00   1.00  0.00  0.00  0.00  0.00  0.00  0.00  0.00  0.00
  6900                    1.00   1.00  0.00  0.00  0.00  0.00  0.00  0.00  0.00  0.00
  6901                    1.00   1.00  0.00  0.00  0.00  0.00  0.00  0.00  0.00  0.00
  6902                    1.00   1.00  0.00  0.00  0.00  0.00  0.00  0.00  0.00  0.00
  6903                    1.00   1.00  0.00  0.00  0.00  0.00  0.00  0.00  0.00  0.00
  6904                    1.00   1.00  0.00  0.00  0.00  0.00  0.00  0.00  0.00  0.00
  6905                    1.00   1.00  0.00  0.00  0.00  0.00  0.00  0.00  0.00  0.00
  8550                    1.00   1.00  0.00  0.00  0.00  0.00  0.00  0.00  0.00  0.00
  8553                    4.41   1.00  0.00  0.00  0.00  0.00  0.00  0.00  0.00  0.00
  8559                    1.00   1.00  0.00  0.00  0.00  0.00  0.00  0.00  0.00  0.00
  8562                    1.00   1.00  0.00  0.00  0.00  0.00  0.00  0.00  0.00  0.00
  9045                    1.00   1.00  0.00  0.00  0.00  0.00  0.00  0.00  0.00  0.00
  9194                    1.00   1.00  0.00  0.00  0.00  0.00  0.00  0.00  0.00  0.00
  9195                    1.00   1.00  0.00  0.00  0.00  0.00  0.00  0.00  0.00  0.00
  9196                    1.00   1.00  0.00  0.00  0.00  0.00  0.00  0.00  0.00  0.00
  9197                    1.00   1.00  0.00  0.00  0.00  0.00  0.00  0.00  0.00  0.00
  9198                    1.00   1.00  0.00  0.00  0.00  0.00  0.00  0.00  0.00  0.00
  9199                    1.00   1.00  0.00  0.00  0.00  0.00  0.00  0.00  0.00  0.00
  9200                    1.00   1.00  0.00  0.00  0.00  0.00  0.00  0.00  0.00  0.00
  9201                    1.00   1.00  0.00  0.00  0.00  0.00  0.00  0.00  0.00  0.00
  9202                    1.00   1.00  0.00  0.00  0.00  0.00  0.00  0.00  0.00  0.00
  9203                    1.00   1.00  0.00  0.00  0.00  0.00  0.00  0.00  0.00  0.00
  9204                    1.00   1.00  0.00  0.00  0.00  0.00  0.00  0.00  0.00  0.00
  9571                    1.00   1.00  0.00  0.00  0.00  0.00  0.00  0.00  0.00  0.00
  9572                    1.00   1.00  0.00  0.00  0.00  0.00  0.00  0.00  0.00  0.00
  9573                    1.26   1.00  0.00  0.00  0.00  0.00  0.00  0.00  0.00  0.00
  9606                    1.00   1.00  0.00  0.00  0.00  0.00  0.00  0.00  0.00  0.00
  9607                    1.00   1.00  0.00  0.00  0.00  0.00  0.00  0.00  0.00  0.00
  9608                    1.00   1.00  0.00  0.00  0.00  0.00  0.00  0.00  0.00  0.00
  9609                    1.00   1.00  0.00  0.00  0.00  0.00  0.00  0.00  0.00  0.00
  9610                    1.00   1.00  0.00  0.00  0.00  0.00  0.00  0.00  0.00  0.00
  9611                    1.00   1.00  0.00  0.00  0.00  0.00  0.00  0.00  0.00  0.00
  9612                    1.00   1.00  0.00  0.00  0.00  0.00  0.00  0.00  0.00  0.00
  9613                    1.00   1.00  0.00  0.00  0.00  0.00  0.00  0.00  0.00  0.00
  9614                    1.00   1.00  0.00  0.00  0.00  0.00  0.00  0.00  0.00  0.00
  9615                    1.00   1.00  0.00  0.00  0.00  0.00  0.00  0.00  0.00  0.00
  9616                    1.00   1.00  0.00  0.00  0.00  0.00  0.00  0.00  0.00  0.00
  9617                    1.00   1.00  0.00  0.00  0.00  0.00  0.00  0.00  0.00  0.00
  9618                    2.17   1.00  0.00  0.00  0.00  0.00  0.00  0.00  0.00  0.00
  9619                    1.00   1.00  0.00  0.00  0.00  0.00  0.00  0.00  0.00  0.00
  P15                     3.41   1.00  0.00  0.00  0.00  0.00  0.00  0.00  0.00  0.00
  P17                     2.38   1.00  0.00  0.00  0.00  0.00  0.00  0.00  0.00  0.00
  P19                     1.00   1.00  0.00  0.00  0.00  0.00  0.00  0.00  0.00  0.00
  P21                     1.00   1.00  0.00  0.00  0.00  0.00  0.00  0.00  0.00  0.00
  P23                     1.00   1.00  0.00  0.00  0.00  0.00  0.00  0.00  0.00  0.00
  P25                     3.99   1.00  0.00  0.00  0.00  0.00  0.00  0.00  0.00  0.00
  P31                     1.00   1.00  0.00  0.00  0.00  0.00  0.00  0.00  0.00  0.00
  P39                     5.65   1.00  0.00  0.00  0.00  0.00  0.00  0.00  0.00  0.00
  P59                     1.78   1.00  0.00  0.00  0.00  0.00  0.00  0.00  0.00  0.00
  P61                     4.99   1.00  0.00  0.00  0.00  0.00  0.00  0.00  0.00  0.00
  
  
  *************************
  Conduit Surcharge Summary
  *************************
  
  No conduits were surcharged.
  
  
  ***************
  Pumping Summary
  ***************
  
  ---------------------------------------------------------------------------------------------------------
                                                  Min       Avg       Max     Total     Power    % Time Off
                        Percent   Number of      Flow      Flow      Flow    Volume     Usage    Pump Curve
  Pump                 Utilized   Start-Ups       CFS       CFS       CFS  10^6 gal     Kw-hr    Low   High
  ---------------------------------------------------------------------------------------------------------
  PS26-1                   0.00           0      0.00      0.00      0.00     0.000      0.00    0.0    0.0
  PS28-1                   0.00           0      0.00      0.00      0.00     0.000      0.00    0.0    0.0
  PS29-1                   0.00           0      0.00      0.00      0.00     0.000      0.00    0.0    0.0
  PS30-1                   0.00           0      0.00      0.00      0.00     0.000      0.00    0.0    0.0
  PS32-2                   0.00           0      0.00      0.00      0.00     0.000      0.00    0.0    0.0
  PS33-1                   0.00           0      0.00      0.00      0.00     0.000      0.00    0.0    0.0
  PS34-1                   0.00           0      0.00      0.00      0.00     0.000      0.00    0.0    0.0
  PS_TC4                   0.00           0      0.00      0.00      0.00     0.000      0.00    0.0    0.0
  

  Analysis begun on:  Fri Nov 29 09:04:50 2019
  Analysis ended on:  Fri Nov 29 09:04:50 2019
  Total elapsed time: < 1 sec