
  EPA STORM WATER MANAGEMENT MODEL - VERSION 5.1 (Build 5.1.013)
  --------------------------------------------------------------

  WARNING 03: negative offset ignored for Link 02-005-02-006
  WARNING 04: minimum elevation drop used for Conduit 02-008-02-008A
  WARNING 03: negative offset ignored for Link 03-007-03-006
  WARNING 03: negative offset ignored for Link 03-013-03-008
  WARNING 03: negative offset ignored for Link 04-045A-04-027
  WARNING 03: negative offset ignored for Link 06-003-06-001A
  WARNING 03: negative offset ignored for Link 07-007A-07-007
  WARNING 03: negative offset ignored for Link 08-066-08-094
  WARNING 03: negative offset ignored for Link 08-070-08-069
  WARNING 03: negative offset ignored for Link 09-039-09-038
  WARNING 04: minimum elevation drop used for Conduit 09-039-09-038
  WARNING 03: negative offset ignored for Link 09-094-09-093
  WARNING 03: negative offset ignored for Link 10-019-10-018
  WARNING 04: minimum elevation drop used for Conduit 10-047-10-108
  WARNING 03: negative offset ignored for Link 10-056-10-055
  WARNING 03: negative offset ignored for Link 10-101-07-042
  WARNING 03: negative offset ignored for Link 11-038-11-032
  WARNING 03: negative offset ignored for Link 11-039-11-038
  WARNING 04: minimum elevation drop used for Conduit 12-003-12-002
  WARNING 03: negative offset ignored for Link 14-001-13-058
  WARNING 03: negative offset ignored for Link 15-113-15-112
  WARNING 03: negative offset ignored for Link 15-137-15-115
  WARNING 03: negative offset ignored for Link 20-001-18-025
  WARNING 03: negative offset ignored for Link 20-028-20-090
  WARNING 03: negative offset ignored for Link 20-033A-20-033
  WARNING 03: negative offset ignored for Link 20-326-20-303
  WARNING 03: negative offset ignored for Link 20-349XX-20-349
  WARNING 03: negative offset ignored for Link 20-355-20-354
  WARNING 03: negative offset ignored for Link 20-357-20-356
  WARNING 03: negative offset ignored for Link 20-362-20-360
  WARNING 03: negative offset ignored for Link 23-014X-23-014
  WARNING 03: negative offset ignored for Link 24-002-24-001
  WARNING 03: negative offset ignored for Link 24-004-24-003
  WARNING 03: negative offset ignored for Link 24-009-24-005
  WARNING 03: negative offset ignored for Link 24-023-24-022
  WARNING 03: negative offset ignored for Link 25-001-09-050
  WARNING 03: negative offset ignored for Link 26-137-26-001
  WARNING 03: negative offset ignored for Link 29-009A-29-009
  WARNING 03: negative offset ignored for Link 30-026-28-144
  WARNING 04: minimum elevation drop used for Conduit 30-026-28-144
  WARNING 03: negative offset ignored for Link 32-051X-32-051
  WARNING 03: negative offset ignored for Link 32-060A-32-060
  WARNING 03: negative offset ignored for Link 33-075-33-012
  WARNING 03: negative offset ignored for Link CDT-105
  WARNING 03: negative offset ignored for Link CDT-255
  WARNING 03: negative offset ignored for Link CDT-271
  WARNING 03: negative offset ignored for Link CDT-315
  WARNING 03: negative offset ignored for Link CDT-33
  WARNING 03: negative offset ignored for Link CDT-349
  WARNING 03: negative offset ignored for Link CDT-393
  WARNING 03: negative offset ignored for Link CDT-417
  WARNING 03: negative offset ignored for Link CDT-419
  WARNING 03: negative offset ignored for Link CDT-425
  WARNING 03: negative offset ignored for Link CDT-43
  WARNING 03: negative offset ignored for Link CDT-459
  WARNING 03: negative offset ignored for Link CDT-47
  WARNING 03: negative offset ignored for Link CDT-93
  WARNING 03: negative offset ignored for Link CDT-99
  WARNING 02: maximum depth increased for Node 03-007
  WARNING 02: maximum depth increased for Node 03-008
  
  *********************************************************
  NOTE: The summary statistics displayed in this report are
  based on results found at every computational time step,  
  not just on results from each reporting time step.
  *********************************************************
  
  ****************
  Analysis Options
  ****************
  Flow Units ............... MGD
  Process Models:
    Rainfall/Runoff ........ NO
    RDII ................... NO
    Snowmelt ............... NO
    Groundwater ............ NO
    Flow Routing ........... YES
    Ponding Allowed ........ NO
    Water Quality .......... NO
  Flow Routing Method ...... DYNWAVE
  Surcharge Method ......... EXTRAN
  Starting Date ............ 07/17/2017 00:00:00
  Ending Date .............. 07/22/2017 23:00:00
  Antecedent Dry Days ...... 5.0
  Report Time Step ......... 00:05:00
  Routing Time Step ........ 30.00 sec
  Variable Time Step ....... YES
  Maximum Trials ........... 4
  Number of Threads ........ 1
  Head Tolerance ........... 0.005000 ft
  
  
  **************************        Volume        Volume
  Flow Routing Continuity        acre-feet      10^6 gal
  **************************     ---------     ---------
  Dry Weather Inflow .......         0.000         0.000
  Wet Weather Inflow .......         0.000         0.000
  Groundwater Inflow .......         0.000         0.000
  RDII Inflow ..............         0.000         0.000
  External Inflow ..........         0.000         0.000
  External Outflow .........         0.000         0.000
  Flooding Loss ............         0.000         0.000
  Evaporation Loss .........         0.000         0.000
  Exfiltration Loss ........         0.000         0.000
  Initial Stored Volume ....         0.000         0.000
  Final Stored Volume ......         0.000         0.000
  Continuity Error (%) .....         0.000
  
  
  ***************************
  Time-Step Critical Elements
  ***************************
  None
  
  
  ********************************
  Highest Flow Instability Indexes
  ********************************
  All links are stable.
  
  
  ******************
  Node Depth Summary
  ******************
  
  ---------------------------------------------------------------------------------
                                 Average  Maximum  Maximum  Time of Max    Reported
                                   Depth    Depth      HGL   Occurrence   Max Depth
  Node                 Type         Feet     Feet     Feet  days hr:min        Feet
  ---------------------------------------------------------------------------------
  01-059               JUNCTION  -nan(ind)     0.00   748.55     0  00:00        0.00
  01-060               JUNCTION  -nan(ind)     0.00   749.00     0  00:00        0.00
  01-061               JUNCTION  -nan(ind)     0.00   749.90     0  00:00        0.00
  01-062               JUNCTION  -nan(ind)     0.00   754.15     0  00:00        0.00
  01-063               JUNCTION  -nan(ind)     0.00   754.68     0  00:00        0.00
  01-064               JUNCTION  -nan(ind)     0.00   755.62     0  00:00        0.00
  01-065               JUNCTION  -nan(ind)     0.00   755.79     0  00:00        0.00
  01-066               JUNCTION  -nan(ind)     0.00   756.13     0  00:00        0.00
  01-067               JUNCTION  -nan(ind)     0.00   756.57     0  00:00        0.00
  01-068               JUNCTION  -nan(ind)     0.00   756.76     0  00:00        0.00
  01-069               JUNCTION  -nan(ind)     0.00   756.96     0  00:00        0.00
  01-070               JUNCTION  -nan(ind)     0.00   757.44     0  00:00        0.00
  01-071               JUNCTION  -nan(ind)     0.00   758.04     0  00:00        0.00
  01-072               JUNCTION  -nan(ind)     0.00   758.70     0  00:00        0.00
  01-073               JUNCTION  -nan(ind)     0.00   758.87     0  00:00        0.00
  01-074               JUNCTION  -nan(ind)     0.00   759.25     0  00:00        0.00
  01-075               JUNCTION  -nan(ind)     0.00   759.72     0  00:00        0.00
  01-076               JUNCTION  -nan(ind)     0.00   760.14     0  00:00        0.00
  01-077               JUNCTION  -nan(ind)     0.00   761.77     0  00:00        0.00
  02-001               JUNCTION  -nan(ind)     0.00   759.39     0  00:00        0.00
  02-002               JUNCTION  -nan(ind)     0.00   759.70     0  00:00        0.00
  02-003               JUNCTION  -nan(ind)     0.00   761.59     0  00:00        0.00
  02-004               JUNCTION  -nan(ind)     0.00   762.73     0  00:00        0.00
  02-005               JUNCTION  -nan(ind)     0.00   763.00     0  00:00        0.00
  02-006               JUNCTION  -nan(ind)     0.00   758.14     0  00:00        0.00
  02-007               JUNCTION  -nan(ind)     0.00   757.49     0  00:00        0.00
  02-007A              JUNCTION  -nan(ind)     0.00   755.79     0  00:00        0.00
  02-008               JUNCTION  -nan(ind)     0.00   763.73     0  00:00        0.00
  02-008A              JUNCTION  -nan(ind)     0.00   763.73     0  00:00        0.00
  02-011               JUNCTION  -nan(ind)     0.00   769.27     0  00:00        0.00
  02-026               JUNCTION  -nan(ind)     0.00   774.64     0  00:00        0.00
  02-027               JUNCTION  -nan(ind)     0.00   794.98     0  00:00        0.00
  02-028               JUNCTION  -nan(ind)     0.00   798.29     0  00:00        0.00
  02-034               JUNCTION  -nan(ind)     0.00   803.12     0  00:00        0.00
  02-035               JUNCTION  -nan(ind)     0.00   805.90     0  00:00        0.00
  02-040               JUNCTION  -nan(ind)     0.00   808.25     0  00:00        0.00
  02-041               JUNCTION  -nan(ind)     0.00   810.34     0  00:00        0.00
  02-080               JUNCTION  -nan(ind)     0.00   763.47     0  00:00        0.00
  03-001               JUNCTION  -nan(ind)     0.00   809.65     0  00:00        0.00
  03-002               JUNCTION  -nan(ind)     0.00   810.42     0  00:00        0.00
  03-002A              JUNCTION  -nan(ind)     0.00   825.18     0  00:00        0.00
  03-003               JUNCTION  -nan(ind)     0.00   825.54     0  00:00        0.00
  03-004               JUNCTION  -nan(ind)     0.00   810.93     0  00:00        0.00
  03-006               JUNCTION  -nan(ind)     0.00   811.10     0  00:00        0.00
  03-007               JUNCTION  -nan(ind)     0.00   811.62     0  00:00        0.00
  03-008               JUNCTION  -nan(ind)     0.00   812.15     0  00:00        0.00
  03-013               JUNCTION  -nan(ind)     0.00   812.72     0  00:00        0.00
  03-014               JUNCTION  -nan(ind)     0.00   813.12     0  00:00        0.00
  03-015               JUNCTION  -nan(ind)     0.00   813.46     0  00:00        0.00
  03-016               JUNCTION  -nan(ind)     0.00   813.94     0  00:00        0.00
  03-018               JUNCTION  -nan(ind)     0.00   814.76     0  00:00        0.00
  03-019               JUNCTION  -nan(ind)     0.00   815.24     0  00:00        0.00
  03-020               JUNCTION  -nan(ind)     0.00   815.85     0  00:00        0.00
  03-021               JUNCTION  -nan(ind)     0.00   816.50     0  00:00        0.00
  03-022               JUNCTION  -nan(ind)     0.00   816.92     0  00:00        0.00
  03-023               JUNCTION  -nan(ind)     0.00   817.23     0  00:00        0.00
  03-024               JUNCTION  -nan(ind)     0.00   817.85     0  00:00        0.00
  03-025               JUNCTION  -nan(ind)     0.00   818.38     0  00:00        0.00
  03-026               JUNCTION  -nan(ind)     0.00   818.91     0  00:00        0.00
  03-027               JUNCTION  -nan(ind)     0.00   819.45     0  00:00        0.00
  03-028               JUNCTION  -nan(ind)     0.00   819.99     0  00:00        0.00
  03-031               JUNCTION  -nan(ind)     0.00   820.28     0  00:00        0.00
  03-035               JUNCTION  -nan(ind)     0.00   814.74     0  00:00        0.00
  03-036               JUNCTION  -nan(ind)     0.00   815.16     0  00:00        0.00
  03-037               JUNCTION  -nan(ind)     0.00   815.58     0  00:00        0.00
  03-038               JUNCTION  -nan(ind)     0.00   816.06     0  00:00        0.00
  03-039               JUNCTION  -nan(ind)     0.00   816.35     0  00:00        0.00
  03-040               JUNCTION  -nan(ind)     0.00   816.47     0  00:00        0.00
  03-041               JUNCTION  -nan(ind)     0.00   817.19     0  00:00        0.00
  03-042               JUNCTION  -nan(ind)     0.00   817.42     0  00:00        0.00
  03-043               JUNCTION  -nan(ind)     0.00   817.94     0  00:00        0.00
  03-044               JUNCTION  -nan(ind)     0.00   818.21     0  00:00        0.00
  03-045               JUNCTION  -nan(ind)     0.00   818.46     0  00:00        0.00
  03-046               JUNCTION  -nan(ind)     0.00   818.52     0  00:00        0.00
  03-047               JUNCTION  -nan(ind)     0.00   818.57     0  00:00        0.00
  03-057               JUNCTION  -nan(ind)     0.00   819.10     0  00:00        0.00
  03-060               JUNCTION  -nan(ind)     0.00   811.04     0  00:00        0.00
  03-061               JUNCTION  -nan(ind)     0.00   819.30     0  00:00        0.00
  03-062               JUNCTION  -nan(ind)     0.00   819.50     0  00:00        0.00
  03-063               JUNCTION  -nan(ind)     0.00   819.83     0  00:00        0.00
  03-065C              JUNCTION  -nan(ind)     0.00   820.50     0  00:00        0.00
  03-067               JUNCTION  -nan(ind)     0.00   819.37     0  00:00        0.00
  03-069               JUNCTION  -nan(ind)     0.00   819.20     0  00:00        0.00
  03-086               JUNCTION  -nan(ind)     0.00   821.97     0  00:00        0.00
  03-087               JUNCTION  -nan(ind)     0.00   832.52     0  00:00        0.00
  03-088               JUNCTION  -nan(ind)     0.00   844.83     0  00:00        0.00
  03-089               JUNCTION  -nan(ind)     0.00   860.21     0  00:00        0.00
  03-090               JUNCTION  -nan(ind)     0.00   860.68     0  00:00        0.00
  03-191               JUNCTION  -nan(ind)     0.00   829.69     0  00:00        0.00
  03-192               JUNCTION  -nan(ind)     0.00   830.40     0  00:00        0.00
  03-198               JUNCTION  -nan(ind)     0.00   830.98     0  00:00        0.00
  03-199               JUNCTION  -nan(ind)     0.00   831.58     0  00:00        0.00
  03-199A              JUNCTION  -nan(ind)     0.00   831.73     0  00:00        0.00
  03-200               JUNCTION  -nan(ind)     0.00   814.18     0  00:00        0.00
  03-201               JUNCTION  -nan(ind)     0.00   814.93     0  00:00        0.00
  03-202               JUNCTION  -nan(ind)     0.00   815.47     0  00:00        0.00
  03-203               JUNCTION  -nan(ind)     0.00   816.03     0  00:00        0.00
  03-210               JUNCTION  -nan(ind)     0.00   816.53     0  00:00        0.00
  03-211               JUNCTION  -nan(ind)     0.00   817.78     0  00:00        0.00
  03-212               JUNCTION  -nan(ind)     0.00   819.03     0  00:00        0.00
  03-213               JUNCTION  -nan(ind)     0.00   820.28     0  00:00        0.00
  03-214               JUNCTION  -nan(ind)     0.00   821.50     0  00:00        0.00
  03-215               JUNCTION  -nan(ind)     0.00   822.72     0  00:00        0.00
  03-216               JUNCTION  -nan(ind)     0.00   823.94     0  00:00        0.00
  03-217               JUNCTION  -nan(ind)     0.00   825.36     0  00:00        0.00
  03-218               JUNCTION  -nan(ind)     0.00   826.78     0  00:00        0.00
  03-219               JUNCTION  -nan(ind)     0.00   828.20     0  00:00        0.00
  03-220               JUNCTION  -nan(ind)     0.00   829.45     0  00:00        0.00
  03-230               JUNCTION  -nan(ind)     0.00   816.00     0  00:00        0.00
  03-252               JUNCTION  -nan(ind)     0.00   820.37     0  00:00        0.00
  03-253               JUNCTION  -nan(ind)     0.00   820.85     0  00:00        0.00
  03-254               JUNCTION  -nan(ind)     0.00   821.33     0  00:00        0.00
  03-255               JUNCTION  -nan(ind)     0.00   822.00     0  00:00        0.00
  03-261               JUNCTION  -nan(ind)     0.00   862.27     0  00:00        0.00
  03-262               JUNCTION  -nan(ind)     0.00   870.10     0  00:00        0.00
  03-263               JUNCTION  -nan(ind)     0.00   897.50     0  00:00        0.00
  03-264               JUNCTION  -nan(ind)     0.00   916.65     0  00:00        0.00
  03-265               JUNCTION  -nan(ind)     0.00   925.71     0  00:00        0.00
  03-266               JUNCTION  -nan(ind)     0.00   944.62     0  00:00        0.00
  03-287               JUNCTION  -nan(ind)     0.00   954.42     0  00:00        0.00
  03-288               JUNCTION  -nan(ind)     0.00   961.24     0  00:00        0.00
  03-289               JUNCTION  -nan(ind)     0.00   967.07     0  00:00        0.00
  03-290               JUNCTION  -nan(ind)     0.00   968.42     0  00:00        0.00
  03-291               JUNCTION  -nan(ind)     0.00   968.68     0  00:00        0.00
  03-292               JUNCTION  -nan(ind)     0.00   969.28     0  00:00        0.00
  03-293               JUNCTION  -nan(ind)     0.00   969.89     0  00:00        0.00
  03-294               JUNCTION  -nan(ind)     0.00   970.51     0  00:00        0.00
  03-295               JUNCTION  -nan(ind)     0.00   971.13     0  00:00        0.00
  03-295X              JUNCTION  -nan(ind)     0.00   971.24     0  00:00        0.00
  04-001               JUNCTION  -nan(ind)     0.00   809.20     0  00:00        0.00
  04-014               JUNCTION  -nan(ind)     0.00   826.16     0  00:00        0.00
  04-023               JUNCTION  -nan(ind)     0.00   821.21     0  00:00        0.00
  04-027               JUNCTION  -nan(ind)     0.00   839.02     0  00:00        0.00
  04-042               JUNCTION  -nan(ind)     0.00   822.26     0  00:00        0.00
  04-043               JUNCTION  -nan(ind)     0.00   821.76     0  00:00        0.00
  04-045               JUNCTION  -nan(ind)     0.00   841.29     0  00:00        0.00
  04-045A              JUNCTION  -nan(ind)     0.00   841.24     0  00:00        0.00
  05-018               JUNCTION  -nan(ind)     0.00   849.44     0  00:00        0.00
  05-034               JUNCTION  -nan(ind)     0.00   850.30     0  00:00        0.00
  05-035               JUNCTION  -nan(ind)     0.00   853.70     0  00:00        0.00
  05-036               JUNCTION  -nan(ind)     0.00   856.94     0  00:00        0.00
  06-001               JUNCTION  -nan(ind)     0.00   805.18     0  00:00        0.00
  06-001A              JUNCTION  -nan(ind)     0.00   809.59     0  00:00        0.00
  06-003               JUNCTION  -nan(ind)     0.00   810.35     0  00:00        0.00
  06-005               JUNCTION  -nan(ind)     0.00   811.77     0  00:00        0.00
  07-003               JUNCTION  -nan(ind)     0.00   779.53     0  00:00        0.00
  07-004               JUNCTION  -nan(ind)     0.00   785.19     0  00:00        0.00
  07-005               JUNCTION  -nan(ind)     0.00   792.16     0  00:00        0.00
  07-007A              JUNCTION  -nan(ind)     0.00   804.14     0  00:00        0.00
  07-039               JUNCTION  -nan(ind)     0.00   816.45     0  00:00        0.00
  07-040               JUNCTION  -nan(ind)     0.00   846.60     0  00:00        0.00
  07-042               JUNCTION  -nan(ind)     0.00   862.12     0  00:00        0.00
  07-043               JUNCTION  -nan(ind)     0.00   781.80     0  00:00        0.00
  07-080               JUNCTION  -nan(ind)     0.00   768.35     0  00:00        0.00
  08-001               JUNCTION  -nan(ind)     0.00   766.60     0  00:00        0.00
  08-002               JUNCTION  -nan(ind)     0.00   763.59     0  00:00        0.00
  08-003               JUNCTION  -nan(ind)     0.00   763.57     0  00:00        0.00
  08-003A              JUNCTION  -nan(ind)     0.00   763.37     0  00:00        0.00
  08-003B              JUNCTION  -nan(ind)     0.00   762.87     0  00:00        0.00
  08-037               JUNCTION  -nan(ind)     0.00   765.10     0  00:00        0.00
  08-038               JUNCTION  -nan(ind)     0.00   766.00     0  00:00        0.00
  08-040               JUNCTION  -nan(ind)     0.00   767.69     0  00:00        0.00
  08-041               JUNCTION  -nan(ind)     0.00   767.97     0  00:00        0.00
  08-041A              JUNCTION  -nan(ind)     0.00   767.80     0  00:00        0.00
  08-043               JUNCTION  -nan(ind)     0.00   770.19     0  00:00        0.00
  08-045               JUNCTION  -nan(ind)     0.00   771.50     0  00:00        0.00
  08-046               JUNCTION  -nan(ind)     0.00   772.57     0  00:00        0.00
  08-049               JUNCTION  -nan(ind)     0.00   775.01     0  00:00        0.00
  08-051               JUNCTION  -nan(ind)     0.00   778.42     0  00:00        0.00
  08-061               JUNCTION  -nan(ind)     0.00   803.82     0  00:00        0.00
  08-066               JUNCTION  -nan(ind)     0.00   814.07     0  00:00        0.00
  08-067               JUNCTION  -nan(ind)     0.00   818.91     0  00:00        0.00
  08-068               JUNCTION  -nan(ind)     0.00   822.47     0  00:00        0.00
  08-069               JUNCTION  -nan(ind)     0.00   830.20     0  00:00        0.00
  08-070               JUNCTION  -nan(ind)     0.00   833.06     0  00:00        0.00
  08-071               JUNCTION  -nan(ind)     0.00   833.95     0  00:00        0.00
  08-072               JUNCTION  -nan(ind)     0.00   835.50     0  00:00        0.00
  08-073               JUNCTION  -nan(ind)     0.00   838.50     0  00:00        0.00
  08-080               JUNCTION  -nan(ind)     0.00   771.00     0  00:00        0.00
  08-081               JUNCTION  -nan(ind)     0.00   771.25     0  00:00        0.00
  08-084               JUNCTION  -nan(ind)     0.00   771.50     0  00:00        0.00
  08-085               JUNCTION  -nan(ind)     0.00   774.55     0  00:00        0.00
  08-086               JUNCTION  -nan(ind)     0.00   777.35     0  00:00        0.00
  08-087               JUNCTION  -nan(ind)     0.00   780.10     0  00:00        0.00
  08-088               JUNCTION  -nan(ind)     0.00   783.20     0  00:00        0.00
  08-090               JUNCTION  -nan(ind)     0.00   785.33     0  00:00        0.00
  08-091               JUNCTION  -nan(ind)     0.00   789.76     0  00:00        0.00
  08-093               JUNCTION  -nan(ind)     0.00   799.00     0  00:00        0.00
  08-094               JUNCTION  -nan(ind)     0.00   804.52     0  00:00        0.00
  08-095               JUNCTION  -nan(ind)     0.00   812.73     0  00:00        0.00
  08-114               JUNCTION  -nan(ind)     0.00   767.00     0  00:00        0.00
  09-001               JUNCTION  -nan(ind)     0.00   755.75     0  00:00        0.00
  09-001A              JUNCTION  -nan(ind)     0.00   752.50     0  00:00        0.00
  09-002               JUNCTION  -nan(ind)     0.00   752.63     0  00:00        0.00
  09-003               JUNCTION  -nan(ind)     0.00   752.82     0  00:00        0.00
  09-004               JUNCTION  -nan(ind)     0.00   753.19     0  00:00        0.00
  09-005               JUNCTION  -nan(ind)     0.00   753.73     0  00:00        0.00
  09-005A              JUNCTION  -nan(ind)     0.00   753.93     0  00:00        0.00
  09-006               JUNCTION  -nan(ind)     0.00   754.14     0  00:00        0.00
  09-007               JUNCTION  -nan(ind)     0.00   754.50     0  00:00        0.00
  09-008               JUNCTION  -nan(ind)     0.00   754.87     0  00:00        0.00
  09-009               JUNCTION  -nan(ind)     0.00   755.39     0  00:00        0.00
  09-010               JUNCTION  -nan(ind)     0.00   755.90     0  00:00        0.00
  09-011               JUNCTION  -nan(ind)     0.00   756.24     0  00:00        0.00
  09-011A              JUNCTION  -nan(ind)     0.00   756.00     0  00:00        0.00
  09-012A              JUNCTION  -nan(ind)     0.00   756.35     0  00:00        0.00
  09-026               JUNCTION  -nan(ind)     0.00   766.21     0  00:00        0.00
  09-033               JUNCTION  -nan(ind)     0.00   749.04     0  00:00        0.00
  09-034               JUNCTION  -nan(ind)     0.00   749.00     0  00:00        0.00
  09-036               JUNCTION  -nan(ind)     0.00   749.72     0  00:00        0.00
  09-037               JUNCTION  -nan(ind)     0.00   750.17     0  00:00        0.00
  09-038               JUNCTION  -nan(ind)     0.00   750.21     0  00:00        0.00
  09-039               JUNCTION  -nan(ind)     0.00   750.21     0  00:00        0.00
  09-041               JUNCTION  -nan(ind)     0.00   750.80     0  00:00        0.00
  09-042               JUNCTION  -nan(ind)     0.00   751.24     0  00:00        0.00
  09-043               JUNCTION  -nan(ind)     0.00   751.85     0  00:00        0.00
  09-044               JUNCTION  -nan(ind)     0.00   752.37     0  00:00        0.00
  09-045               JUNCTION  -nan(ind)     0.00   752.61     0  00:00        0.00
  09-046               JUNCTION  -nan(ind)     0.00   752.83     0  00:00        0.00
  09-047               JUNCTION  -nan(ind)     0.00   752.98     0  00:00        0.00
  09-048               JUNCTION  -nan(ind)     0.00   753.20     0  00:00        0.00
  09-048A              JUNCTION  -nan(ind)     0.00   753.35     0  00:00        0.00
  09-049               JUNCTION  -nan(ind)     0.00   753.55     0  00:00        0.00
  09-050               JUNCTION  -nan(ind)     0.00   753.73     0  00:00        0.00
  09-051               JUNCTION  -nan(ind)     0.00   760.00     0  00:00        0.00
  09-088               JUNCTION  -nan(ind)     0.00   756.91     0  00:00        0.00
  09-089               JUNCTION  -nan(ind)     0.00   757.80     0  00:00        0.00
  09-093               JUNCTION  -nan(ind)     0.00   760.44     0  00:00        0.00
  09-094               JUNCTION  -nan(ind)     0.00   762.51     0  00:00        0.00
  09-096               JUNCTION  -nan(ind)     0.00   771.56     0  00:00        0.00
  09-097               JUNCTION  -nan(ind)     0.00   774.26     0  00:00        0.00
  09-098               JUNCTION  -nan(ind)     0.00   777.74     0  00:00        0.00
  09-099               JUNCTION  -nan(ind)     0.00   779.76     0  00:00        0.00
  09-121               JUNCTION  -nan(ind)     0.00   762.25     0  00:00        0.00
  09-133               JUNCTION  -nan(ind)     0.00   765.35     0  00:00        0.00
  09-135               JUNCTION  -nan(ind)     0.00   758.24     0  00:00        0.00
  09-136               JUNCTION  -nan(ind)     0.00   757.76     0  00:00        0.00
  09-138               JUNCTION  -nan(ind)     0.00   757.23     0  00:00        0.00
  09-139               JUNCTION  -nan(ind)     0.00   756.89     0  00:00        0.00
  09-140               JUNCTION  -nan(ind)     0.00   756.82     0  00:00        0.00
  09-203               JUNCTION  -nan(ind)     0.00   767.35     0  00:00        0.00
  09-204               JUNCTION  -nan(ind)     0.00   769.28     0  00:00        0.00
  09-205               JUNCTION  -nan(ind)     0.00   770.10     0  00:00        0.00
  09-206               JUNCTION  -nan(ind)     0.00   748.94     0  00:00        0.00
  10-013               JUNCTION  -nan(ind)     0.00   984.00     0  00:00        0.00
  10-014               JUNCTION  -nan(ind)     0.00   984.41     0  00:00        0.00
  10-015               JUNCTION  -nan(ind)     0.00   984.73     0  00:00        0.00
  10-018               JUNCTION  -nan(ind)     0.00   984.80     0  00:00        0.00
  10-019               JUNCTION  -nan(ind)     0.00   984.90     0  00:00        0.00
  10-022               JUNCTION  -nan(ind)     0.00   985.78     0  00:00        0.00
  10-023               JUNCTION  -nan(ind)     0.00   985.71     0  00:00        0.00
  10-047               JUNCTION  -nan(ind)     0.00   976.04     0  00:00        0.00
  10-053               JUNCTION  -nan(ind)     0.00   976.49     0  00:00        0.00
  10-055               JUNCTION  -nan(ind)     0.00   976.82     0  00:00        0.00
  10-056               JUNCTION  -nan(ind)     0.00   977.00     0  00:00        0.00
  10-057               JUNCTION  -nan(ind)     0.00   978.06     0  00:00        0.00
  10-058               JUNCTION  -nan(ind)     0.00   978.86     0  00:00        0.00
  10-061               JUNCTION  -nan(ind)     0.00   980.20     0  00:00        0.00
  10-062               JUNCTION  -nan(ind)     0.00   980.68     0  00:00        0.00
  10-101               JUNCTION  -nan(ind)     0.00   864.49     0  00:00        0.00
  10-102               JUNCTION  -nan(ind)     0.00   876.76     0  00:00        0.00
  10-103               JUNCTION  -nan(ind)     0.00   909.32     0  00:00        0.00
  10-104               JUNCTION  -nan(ind)     0.00   918.24     0  00:00        0.00
  10-105               JUNCTION  -nan(ind)     0.00   950.95     0  00:00        0.00
  10-107               JUNCTION  -nan(ind)     0.00   975.62     0  00:00        0.00
  10-108               JUNCTION  -nan(ind)     0.00   976.04     0  00:00        0.00
  10-109               JUNCTION  -nan(ind)     0.00   983.32     0  00:00        0.00
  10-110               JUNCTION  -nan(ind)     0.00   983.68     0  00:00        0.00
  10-111               JUNCTION  -nan(ind)     0.00   983.70     0  00:00        0.00
  10-113               JUNCTION  -nan(ind)     0.00   983.78     0  00:00        0.00
  10-114               JUNCTION  -nan(ind)     0.00   983.88     0  00:00        0.00
  10-115               JUNCTION  -nan(ind)     0.00   985.03     0  00:00        0.00
  10-117               JUNCTION  -nan(ind)     0.00   985.11     0  00:00        0.00
  10-118               JUNCTION  -nan(ind)     0.00   985.28     0  00:00        0.00
  10-119               JUNCTION  -nan(ind)     0.00   985.53     0  00:00        0.00
  11-001               JUNCTION  -nan(ind)     0.00   986.11     0  00:00        0.00
  11-007               JUNCTION  -nan(ind)     0.00   987.30     0  00:00        0.00
  11-023               JUNCTION  -nan(ind)     0.00   987.50     0  00:00        0.00
  11-023A              JUNCTION  -nan(ind)     0.00   987.98     0  00:00        0.00
  11-031               JUNCTION  -nan(ind)     0.00   988.52     0  00:00        0.00
  11-032               JUNCTION  -nan(ind)     0.00   989.05     0  00:00        0.00
  11-038               JUNCTION  -nan(ind)     0.00   989.32     0  00:00        0.00
  11-039               JUNCTION  -nan(ind)     0.00   990.07     0  00:00        0.00
  12-001               JUNCTION  -nan(ind)     0.00   983.01     0  00:00        0.00
  12-002               JUNCTION  -nan(ind)     0.00   983.94     0  00:00        0.00
  12-003               JUNCTION  -nan(ind)     0.00   983.94     0  00:00        0.00
  12-004               JUNCTION  -nan(ind)     0.00   984.26     0  00:00        0.00
  12-008               JUNCTION  -nan(ind)     0.00   984.57     0  00:00        0.00
  12-009               JUNCTION  -nan(ind)     0.00   986.42     0  00:00        0.00
  12-046               JUNCTION  -nan(ind)     0.00   982.56     0  00:00        0.00
  13-001               JUNCTION  -nan(ind)     0.00   917.50     0  00:00        0.00
  13-002               JUNCTION  -nan(ind)     0.00   918.53     0  00:00        0.00
  13-003               JUNCTION  -nan(ind)     0.00   920.77     0  00:00        0.00
  13-004               JUNCTION  -nan(ind)     0.00   922.50     0  00:00        0.00
  13-015               JUNCTION  -nan(ind)     0.00   924.02     0  00:00        0.00
  13-016               JUNCTION  -nan(ind)     0.00   926.59     0  00:00        0.00
  13-017               JUNCTION  -nan(ind)     0.00   928.24     0  00:00        0.00
  13-018               JUNCTION  -nan(ind)     0.00   932.85     0  00:00        0.00
  13-019               JUNCTION  -nan(ind)     0.00   939.50     0  00:00        0.00
  13-022               JUNCTION  -nan(ind)     0.00   940.49     0  00:00        0.00
  13-023               JUNCTION  -nan(ind)     0.00   943.00     0  00:00        0.00
  13-024               JUNCTION  -nan(ind)     0.00   946.02     0  00:00        0.00
  13-037               JUNCTION  -nan(ind)     0.00   947.54     0  00:00        0.00
  13-039               JUNCTION  -nan(ind)     0.00   948.10     0  00:00        0.00
  13-040               JUNCTION  -nan(ind)     0.00   955.00     0  00:00        0.00
  13-041               JUNCTION  -nan(ind)     0.00   959.97     0  00:00        0.00
  13-042               JUNCTION  -nan(ind)     0.00   962.58     0  00:00        0.00
  13-056               JUNCTION  -nan(ind)     0.00   981.07     0  00:00        0.00
  13-057               JUNCTION  -nan(ind)     0.00   981.73     0  00:00        0.00
  13-058               JUNCTION  -nan(ind)     0.00   982.26     0  00:00        0.00
  13-059               JUNCTION  -nan(ind)     0.00   972.50     0  00:00        0.00
  13-060               JUNCTION  -nan(ind)     0.00   974.15     0  00:00        0.00
  14-001               JUNCTION  -nan(ind)     0.00   982.75     0  00:00        0.00
  14-002               JUNCTION  -nan(ind)     0.00   982.90     0  00:00        0.00
  14-009               JUNCTION  -nan(ind)     0.00   983.50     0  00:00        0.00
  14-016               JUNCTION  -nan(ind)     0.00   983.75     0  00:00        0.00
  14-017               JUNCTION  -nan(ind)     0.00   984.29     0  00:00        0.00
  14-027               JUNCTION  -nan(ind)     0.00   984.55     0  00:00        0.00
  14-028               JUNCTION  -nan(ind)     0.00   985.00     0  00:00        0.00
  14-031               JUNCTION  -nan(ind)     0.00   986.55     0  00:00        0.00
  14-035               JUNCTION  -nan(ind)     0.00   986.92     0  00:00        0.00
  14-036               JUNCTION  -nan(ind)     0.00   987.52     0  00:00        0.00
  14-037               JUNCTION  -nan(ind)     0.00   988.02     0  00:00        0.00
  14-038               JUNCTION  -nan(ind)     0.00   988.50     0  00:00        0.00
  14-039               JUNCTION  -nan(ind)     0.00   989.60     0  00:00        0.00
  14-040               JUNCTION  -nan(ind)     0.00   989.87     0  00:00        0.00
  14-041               JUNCTION  -nan(ind)     0.00   990.27     0  00:00        0.00
  14-043               JUNCTION  -nan(ind)     0.00   990.73     0  00:00        0.00
  14-045               JUNCTION  -nan(ind)     0.00   991.00     0  00:00        0.00
  14-080               JUNCTION  -nan(ind)     0.00   988.51     0  00:00        0.00
  14-081               JUNCTION  -nan(ind)     0.00   989.01     0  00:00        0.00
  14-082               JUNCTION  -nan(ind)     0.00   990.00     0  00:00        0.00
  14-091               JUNCTION  -nan(ind)     0.00   991.50     0  00:00        0.00
  15-001               JUNCTION  -nan(ind)     0.00   948.40     0  00:00        0.00
  15-011               JUNCTION  -nan(ind)     0.00   948.73     0  00:00        0.00
  15-066               JUNCTION  -nan(ind)     0.00   949.34     0  00:00        0.00
  15-067               JUNCTION  -nan(ind)     0.00   949.81     0  00:00        0.00
  15-084               JUNCTION  -nan(ind)     0.00   968.54     0  00:00        0.00
  15-097               JUNCTION  -nan(ind)     0.00   968.84     0  00:00        0.00
  15-098               JUNCTION  -nan(ind)     0.00   969.41     0  00:00        0.00
  15-099               JUNCTION  -nan(ind)     0.00   969.81     0  00:00        0.00
  15-100               JUNCTION  -nan(ind)     0.00   970.34     0  00:00        0.00
  15-101               JUNCTION  -nan(ind)     0.00   979.58     0  00:00        0.00
  15-107               JUNCTION  -nan(ind)     0.00   969.59     0  00:00        0.00
  15-108               JUNCTION  -nan(ind)     0.00   969.24     0  00:00        0.00
  15-109               JUNCTION  -nan(ind)     0.00   970.45     0  00:00        0.00
  15-110               JUNCTION  -nan(ind)     0.00   970.86     0  00:00        0.00
  15-111               JUNCTION  -nan(ind)     0.00   971.16     0  00:00        0.00
  15-112               JUNCTION  -nan(ind)     0.00   971.49     0  00:00        0.00
  15-113               JUNCTION  -nan(ind)     0.00   971.80     0  00:00        0.00
  15-114               JUNCTION  -nan(ind)     0.00   972.01     0  00:00        0.00
  15-115               JUNCTION  -nan(ind)     0.00   972.15     0  00:00        0.00
  15-137               JUNCTION  -nan(ind)     0.00   972.44     0  00:00        0.00
  15-138               JUNCTION  -nan(ind)     0.00   972.51     0  00:00        0.00
  15-139               JUNCTION  -nan(ind)     0.00   973.32     0  00:00        0.00
  15-140               JUNCTION  -nan(ind)     0.00   974.22     0  00:00        0.00
  15-142               JUNCTION  -nan(ind)     0.00   974.73     0  00:00        0.00
  15-143               JUNCTION  -nan(ind)     0.00   975.36     0  00:00        0.00
  15-145               JUNCTION  -nan(ind)     0.00   975.64     0  00:00        0.00
  16-001               JUNCTION  -nan(ind)     0.00   841.00     0  00:00        0.00
  16-002               JUNCTION  -nan(ind)     0.00   845.15     0  00:00        0.00
  16-003               JUNCTION  -nan(ind)     0.00   848.90     0  00:00        0.00
  16-004               JUNCTION  -nan(ind)     0.00   859.56     0  00:00        0.00
  16-005               JUNCTION  -nan(ind)     0.00   875.00     0  00:00        0.00
  16-006               JUNCTION  -nan(ind)     0.00   885.32     0  00:00        0.00
  16-007               JUNCTION  -nan(ind)     0.00   891.00     0  00:00        0.00
  16-008               JUNCTION  -nan(ind)     0.00   897.50     0  00:00        0.00
  16-009               JUNCTION  -nan(ind)     0.00   906.00     0  00:00        0.00
  16-010               JUNCTION  -nan(ind)     0.00   916.08     0  00:00        0.00
  18-001               JUNCTION  -nan(ind)     0.00   821.46     0  00:00        0.00
  18-002               JUNCTION  -nan(ind)     0.00   830.00     0  00:00        0.00
  18-003               JUNCTION  -nan(ind)     0.00   835.50     0  00:00        0.00
  18-004               JUNCTION  -nan(ind)     0.00   843.03     0  00:00        0.00
  18-005               JUNCTION  -nan(ind)     0.00   864.58     0  00:00        0.00
  18-006               JUNCTION  -nan(ind)     0.00   865.37     0  00:00        0.00
  18-007               JUNCTION  -nan(ind)     0.00   874.00     0  00:00        0.00
  18-008               JUNCTION  -nan(ind)     0.00   886.00     0  00:00        0.00
  18-008A              JUNCTION  -nan(ind)     0.00   899.91     0  00:00        0.00
  18-009               JUNCTION  -nan(ind)     0.00   905.02     0  00:00        0.00
  18-010               JUNCTION  -nan(ind)     0.00   916.04     0  00:00        0.00
  18-011               JUNCTION  -nan(ind)     0.00   923.24     0  00:00        0.00
  18-011A              JUNCTION  -nan(ind)     0.00   930.64     0  00:00        0.00
  18-012               JUNCTION  -nan(ind)     0.00   938.72     0  00:00        0.00
  18-013               JUNCTION  -nan(ind)     0.00   956.32     0  00:00        0.00
  18-014               JUNCTION  -nan(ind)     0.00   963.68     0  00:00        0.00
  18-015               JUNCTION  -nan(ind)     0.00   965.76     0  00:00        0.00
  18-016               JUNCTION  -nan(ind)     0.00   968.17     0  00:00        0.00
  18-017               JUNCTION  -nan(ind)     0.00   970.00     0  00:00        0.00
  18-018               JUNCTION  -nan(ind)     0.00   970.13     0  00:00        0.00
  18-019               JUNCTION  -nan(ind)     0.00   970.30     0  00:00        0.00
  18-020               JUNCTION  -nan(ind)     0.00   970.53     0  00:00        0.00
  18-021               JUNCTION  -nan(ind)     0.00   970.63     0  00:00        0.00
  18-022               JUNCTION  -nan(ind)     0.00   970.75     0  00:00        0.00
  18-023               JUNCTION  -nan(ind)     0.00   970.91     0  00:00        0.00
  18-024               JUNCTION  -nan(ind)     0.00   971.10     0  00:00        0.00
  18-025               JUNCTION  -nan(ind)     0.00   971.27     0  00:00        0.00
  20-001               JUNCTION  -nan(ind)     0.00   971.52     0  00:00        0.00
  20-002               JUNCTION  -nan(ind)     0.00   971.70     0  00:00        0.00
  20-003               JUNCTION  -nan(ind)     0.00   971.91     0  00:00        0.00
  20-004               JUNCTION  -nan(ind)     0.00   972.11     0  00:00        0.00
  20-023               JUNCTION  -nan(ind)     0.00   972.30     0  00:00        0.00
  20-024               JUNCTION  -nan(ind)     0.00   972.50     0  00:00        0.00
  20-025               JUNCTION  -nan(ind)     0.00   972.70     0  00:00        0.00
  20-026               JUNCTION  -nan(ind)     0.00   972.90     0  00:00        0.00
  20-027               JUNCTION  -nan(ind)     0.00   973.19     0  00:00        0.00
  20-028               JUNCTION  -nan(ind)     0.00   973.88     0  00:00        0.00
  20-028A              JUNCTION  -nan(ind)     0.00   973.59     0  00:00        0.00
  20-029               JUNCTION  -nan(ind)     0.00   973.67     0  00:00        0.00
  20-030               JUNCTION  -nan(ind)     0.00   973.91     0  00:00        0.00
  20-031               JUNCTION  -nan(ind)     0.00   974.00     0  00:00        0.00
  20-032               JUNCTION  -nan(ind)     0.00   974.39     0  00:00        0.00
  20-032A              JUNCTION  -nan(ind)     0.00   974.20     0  00:00        0.00
  20-033               JUNCTION  -nan(ind)     0.00   974.63     0  00:00        0.00
  20-033A              JUNCTION  -nan(ind)     0.00   974.46     0  00:00        0.00
  20-034               JUNCTION  -nan(ind)     0.00   974.52     0  00:00        0.00
  20-035               JUNCTION  -nan(ind)     0.00   975.11     0  00:00        0.00
  20-036               JUNCTION  -nan(ind)     0.00   975.35     0  00:00        0.00
  20-037               JUNCTION  -nan(ind)     0.00   975.63     0  00:00        0.00
  20-046               JUNCTION  -nan(ind)     0.00   974.15     0  00:00        0.00
  20-047               JUNCTION  -nan(ind)     0.00   976.58     0  00:00        0.00
  20-048               JUNCTION  -nan(ind)     0.00   977.25     0  00:00        0.00
  20-049               JUNCTION  -nan(ind)     0.00   977.92     0  00:00        0.00
  20-050               JUNCTION  -nan(ind)     0.00   978.59     0  00:00        0.00
  20-050A              JUNCTION  -nan(ind)     0.00   979.00     0  00:00        0.00
  20-051               JUNCTION  -nan(ind)     0.00   979.10     0  00:00        0.00
  20-052               JUNCTION  -nan(ind)     0.00   980.35     0  00:00        0.00
  20-053               JUNCTION  -nan(ind)     0.00   981.04     0  00:00        0.00
  20-054               JUNCTION  -nan(ind)     0.00   981.50     0  00:00        0.00
  20-055               JUNCTION  -nan(ind)     0.00   981.72     0  00:00        0.00
  20-058               JUNCTION  -nan(ind)     0.00   982.00     0  00:00        0.00
  20-059               JUNCTION  -nan(ind)     0.00   982.50     0  00:00        0.00
  20-071               JUNCTION  -nan(ind)     0.00   976.33     0  00:00        0.00
  20-072               JUNCTION  -nan(ind)     0.00   976.70     0  00:00        0.00
  20-073               JUNCTION  -nan(ind)     0.00   977.08     0  00:00        0.00
  20-074               JUNCTION  -nan(ind)     0.00   977.41     0  00:00        0.00
  20-090               JUNCTION  -nan(ind)     0.00   973.40     0  00:00        0.00
  20-110               JUNCTION  -nan(ind)     0.00   973.96     0  00:00        0.00
  20-120               JUNCTION  -nan(ind)     0.00   979.20     0  00:00        0.00
  20-159               JUNCTION  -nan(ind)     0.00   950.13     0  00:00        0.00
  20-159A              JUNCTION  -nan(ind)     0.00   950.29     0  00:00        0.00
  20-160               JUNCTION  -nan(ind)     0.00   950.55     0  00:00        0.00
  20-161               JUNCTION  -nan(ind)     0.00   950.91     0  00:00        0.00
  20-184               JUNCTION  -nan(ind)     0.00   979.75     0  00:00        0.00
  20-185               JUNCTION  -nan(ind)     0.00   980.26     0  00:00        0.00
  20-185B              JUNCTION  -nan(ind)     0.00   948.94     0  00:00        0.00
  20-229               JUNCTION  -nan(ind)     0.00   956.36     0  00:00        0.00
  20-299               JUNCTION  -nan(ind)     0.00   951.47     0  00:00        0.00
  20-300               JUNCTION  -nan(ind)     0.00   951.87     0  00:00        0.00
  20-301               JUNCTION  -nan(ind)     0.00   952.32     0  00:00        0.00
  20-302               JUNCTION  -nan(ind)     0.00   952.84     0  00:00        0.00
  20-303               JUNCTION  -nan(ind)     0.00   953.68     0  00:00        0.00
  20-326               JUNCTION  -nan(ind)     0.00   954.00     0  00:00        0.00
  20-327               JUNCTION  -nan(ind)     0.00   954.62     0  00:00        0.00
  20-328               JUNCTION  -nan(ind)     0.00   955.09     0  00:00        0.00
  20-329               JUNCTION  -nan(ind)     0.00   955.71     0  00:00        0.00
  20-330               JUNCTION  -nan(ind)     0.00   956.23     0  00:00        0.00
  20-332               JUNCTION  -nan(ind)     0.00   956.85     0  00:00        0.00
  20-333               JUNCTION  -nan(ind)     0.00   957.33     0  00:00        0.00
  20-349               JUNCTION  -nan(ind)     0.00   957.57     0  00:00        0.00
  20-349XX             JUNCTION  -nan(ind)     0.00   957.60     0  00:00        0.00
  20-350               JUNCTION  -nan(ind)     0.00   964.09     0  00:00        0.00
  20-351               JUNCTION  -nan(ind)     0.00   964.56     0  00:00        0.00
  20-352               JUNCTION  -nan(ind)     0.00   964.98     0  00:00        0.00
  20-354               JUNCTION  -nan(ind)     0.00   965.42     0  00:00        0.00
  20-355               JUNCTION  -nan(ind)     0.00   965.95     0  00:00        0.00
  20-356               JUNCTION  -nan(ind)     0.00   966.48     0  00:00        0.00
  20-357               JUNCTION  -nan(ind)     0.00   966.67     0  00:00        0.00
  20-358               JUNCTION  -nan(ind)     0.00   967.17     0  00:00        0.00
  20-359               JUNCTION  -nan(ind)     0.00   967.62     0  00:00        0.00
  20-360               JUNCTION  -nan(ind)     0.00   967.95     0  00:00        0.00
  20-362               JUNCTION  -nan(ind)     0.00   968.20     0  00:00        0.00
  20-368               JUNCTION  -nan(ind)     0.00   949.11     0  00:00        0.00
  20-369               JUNCTION  -nan(ind)     0.00   949.45     0  00:00        0.00
  20-370               JUNCTION  -nan(ind)     0.00   949.75     0  00:00        0.00
  20-371               JUNCTION  -nan(ind)     0.00   950.20     0  00:00        0.00
  20-372               JUNCTION  -nan(ind)     0.00   950.68     0  00:00        0.00
  20-444               JUNCTION  -nan(ind)     0.00   950.91     0  00:00        0.00
  20-445               JUNCTION  -nan(ind)     0.00   951.25     0  00:00        0.00
  20-449               JUNCTION  -nan(ind)     0.00   951.39     0  00:00        0.00
  20-450               JUNCTION  -nan(ind)     0.00   951.70     0  00:00        0.00
  22-001               JUNCTION  -nan(ind)     0.00   781.00     0  00:00        0.00
  23-001               JUNCTION  -nan(ind)     0.00   754.58     0  00:00        0.00
  23-002               JUNCTION  -nan(ind)     0.00   755.13     0  00:00        0.00
  23-003               JUNCTION  -nan(ind)     0.00   755.89     0  00:00        0.00
  23-004               JUNCTION  -nan(ind)     0.00   756.86     0  00:00        0.00
  23-005               JUNCTION  -nan(ind)     0.00   757.72     0  00:00        0.00
  23-006               JUNCTION  -nan(ind)     0.00   757.99     0  00:00        0.00
  23-007               JUNCTION  -nan(ind)     0.00   758.37     0  00:00        0.00
  23-010               JUNCTION  -nan(ind)     0.00   759.52     0  00:00        0.00
  23-014               JUNCTION  -nan(ind)     0.00   760.64     0  00:00        0.00
  23-014X              JUNCTION  -nan(ind)     0.00   760.76     0  00:00        0.00
  23-015               JUNCTION  -nan(ind)     0.00   758.95     0  00:00        0.00
  23-016               JUNCTION  -nan(ind)     0.00   759.92     0  00:00        0.00
  23-018               JUNCTION  -nan(ind)     0.00   760.28     0  00:00        0.00
  24-001               JUNCTION  -nan(ind)     0.00   754.93     0  00:00        0.00
  24-002               JUNCTION  -nan(ind)     0.00   754.89     0  00:00        0.00
  24-003               JUNCTION  -nan(ind)     0.00   755.70     0  00:00        0.00
  24-004               JUNCTION  -nan(ind)     0.00   756.10     0  00:00        0.00
  24-005               JUNCTION  -nan(ind)     0.00   757.25     0  00:00        0.00
  24-009               JUNCTION  -nan(ind)     0.00   757.26     0  00:00        0.00
  24-012               JUNCTION  -nan(ind)     0.00   757.90     0  00:00        0.00
  24-015               JUNCTION  -nan(ind)     0.00   759.43     0  00:00        0.00
  24-019               JUNCTION  -nan(ind)     0.00   760.38     0  00:00        0.00
  24-022               JUNCTION  -nan(ind)     0.00   759.49     0  00:00        0.00
  24-023               JUNCTION  -nan(ind)     0.00   759.89     0  00:00        0.00
  24-027               JUNCTION  -nan(ind)     0.00   760.71     0  00:00        0.00
  24-031               JUNCTION  -nan(ind)     0.00   761.24     0  00:00        0.00
  24-032               JUNCTION  -nan(ind)     0.00   765.35     0  00:00        0.00
  24-066               JUNCTION  -nan(ind)     0.00   758.29     0  00:00        0.00
  24-067               JUNCTION  -nan(ind)     0.00   758.71     0  00:00        0.00
  24-072               JUNCTION  -nan(ind)     0.00   758.79     0  00:00        0.00
  24-132               JUNCTION  -nan(ind)     0.00   760.11     0  00:00        0.00
  24-133               JUNCTION  -nan(ind)     0.00   760.45     0  00:00        0.00
  24-136               JUNCTION  -nan(ind)     0.00   760.61     0  00:00        0.00
  24-137               JUNCTION  -nan(ind)     0.00   761.43     0  00:00        0.00
  25-001               JUNCTION  -nan(ind)     0.00   754.75     0  00:00        0.00
  25-001A              JUNCTION  -nan(ind)     0.00   754.12     0  00:00        0.00
  25-002               JUNCTION  -nan(ind)     0.00   762.76     0  00:00        0.00
  25-003               JUNCTION  -nan(ind)     0.00   764.61     0  00:00        0.00
  25-005               JUNCTION  -nan(ind)     0.00   771.00     0  00:00        0.00
  25-006               JUNCTION  -nan(ind)     0.00   772.66     0  00:00        0.00
  25-010               JUNCTION  -nan(ind)     0.00   773.07     0  00:00        0.00
  25-010A              JUNCTION  -nan(ind)     0.00   773.30     0  00:00        0.00
  25-011               JUNCTION  -nan(ind)     0.00   773.71     0  00:00        0.00
  25-015               JUNCTION  -nan(ind)     0.00   774.00     0  00:00        0.00
  25-016               JUNCTION  -nan(ind)     0.00   776.19     0  00:00        0.00
  25-016A              JUNCTION  -nan(ind)     0.00   775.00     0  00:00        0.00
  25-017               JUNCTION  -nan(ind)     0.00   777.19     0  00:00        0.00
  25-018               JUNCTION  -nan(ind)     0.00   782.00     0  00:00        0.00
  25-019               JUNCTION  -nan(ind)     0.00   786.63     0  00:00        0.00
  25-020               JUNCTION  -nan(ind)     0.00   794.70     0  00:00        0.00
  25-021               JUNCTION  -nan(ind)     0.00   797.93     0  00:00        0.00
  25-034               JUNCTION  -nan(ind)     0.00   791.40     0  00:00        0.00
  25-037               JUNCTION  -nan(ind)     0.00   798.00     0  00:00        0.00
  25-038               JUNCTION  -nan(ind)     0.00   799.54     0  00:00        0.00
  25-039               JUNCTION  -nan(ind)     0.00   801.68     0  00:00        0.00
  26-001               JUNCTION  -nan(ind)     0.00   803.58     0  00:00        0.00
  26-137               JUNCTION  -nan(ind)     0.00   805.27     0  00:00        0.00
  26-138               JUNCTION  -nan(ind)     0.00   805.73     0  00:00        0.00
  26-139               JUNCTION  -nan(ind)     0.00   806.20     0  00:00        0.00
  26-140               JUNCTION  -nan(ind)     0.00   807.19     0  00:00        0.00
  26-141               JUNCTION  -nan(ind)     0.00   809.42     0  00:00        0.00
  26-142               JUNCTION  -nan(ind)     0.00   815.53     0  00:00        0.00
  26-143               JUNCTION  -nan(ind)     0.00   817.02     0  00:00        0.00
  26-144               JUNCTION  -nan(ind)     0.00   817.66     0  00:00        0.00
  26-145               JUNCTION  -nan(ind)     0.00   823.69     0  00:00        0.00
  28-001               JUNCTION  -nan(ind)     0.00   859.00     0  00:00        0.00
  28-002               JUNCTION  -nan(ind)     0.00   862.16     0  00:00        0.00
  28-003               JUNCTION  -nan(ind)     0.00   863.37     0  00:00        0.00
  28-004               JUNCTION  -nan(ind)     0.00   864.94     0  00:00        0.00
  28-005               JUNCTION  -nan(ind)     0.00   874.69     0  00:00        0.00
  28-006               JUNCTION  -nan(ind)     0.00   876.85     0  00:00        0.00
  28-007               JUNCTION  -nan(ind)     0.00   877.51     0  00:00        0.00
  28-008               JUNCTION  -nan(ind)     0.00   884.43     0  00:00        0.00
  28-009               JUNCTION  -nan(ind)     0.00   885.86     0  00:00        0.00
  28-010               JUNCTION  -nan(ind)     0.00   887.08     0  00:00        0.00
  28-011               JUNCTION  -nan(ind)     0.00   891.17     0  00:00        0.00
  28-012               JUNCTION  -nan(ind)     0.00   892.92     0  00:00        0.00
  28-013               JUNCTION  -nan(ind)     0.00   901.55     0  00:00        0.00
  28-014               JUNCTION  -nan(ind)     0.00   906.09     0  00:00        0.00
  28-015               JUNCTION  -nan(ind)     0.00   907.42     0  00:00        0.00
  28-016               JUNCTION  -nan(ind)     0.00   908.58     0  00:00        0.00
  28-017               JUNCTION  -nan(ind)     0.00   911.11     0  00:00        0.00
  28-018               JUNCTION  -nan(ind)     0.00   916.39     0  00:00        0.00
  28-019               JUNCTION  -nan(ind)     0.00   920.63     0  00:00        0.00
  28-020               JUNCTION  -nan(ind)     0.00   978.19     0  00:00        0.00
  28-021               JUNCTION  -nan(ind)     0.00   978.62     0  00:00        0.00
  28-022               JUNCTION  -nan(ind)     0.00   979.33     0  00:00        0.00
  28-023               JUNCTION  -nan(ind)     0.00   979.93     0  00:00        0.00
  28-024               JUNCTION  -nan(ind)     0.00   980.07     0  00:00        0.00
  28-025               JUNCTION  -nan(ind)     0.00   980.51     0  00:00        0.00
  28-026               JUNCTION  -nan(ind)     0.00   980.82     0  00:00        0.00
  28-027               JUNCTION  -nan(ind)     0.00   980.98     0  00:00        0.00
  28-028               JUNCTION  -nan(ind)     0.00   981.26     0  00:00        0.00
  28-029               JUNCTION  -nan(ind)     0.00   981.34     0  00:00        0.00
  28-030               JUNCTION  -nan(ind)     0.00   981.53     0  00:00        0.00
  28-031               JUNCTION  -nan(ind)     0.00   981.79     0  00:00        0.00
  28-032               JUNCTION  -nan(ind)     0.00   982.02     0  00:00        0.00
  28-033               JUNCTION  -nan(ind)     0.00   982.22     0  00:00        0.00
  28-034               JUNCTION  -nan(ind)     0.00   982.40     0  00:00        0.00
  28-035               JUNCTION  -nan(ind)     0.00   982.50     0  00:00        0.00
  28-036               JUNCTION  -nan(ind)     0.00   982.73     0  00:00        0.00
  28-037               JUNCTION  -nan(ind)     0.00   983.00     0  00:00        0.00
  28-038               JUNCTION  -nan(ind)     0.00   983.29     0  00:00        0.00
  28-039               JUNCTION  -nan(ind)     0.00   983.71     0  00:00        0.00
  28-040               JUNCTION  -nan(ind)     0.00   983.83     0  00:00        0.00
  28-041               JUNCTION  -nan(ind)     0.00   984.12     0  00:00        0.00
  28-042               JUNCTION  -nan(ind)     0.00   984.33     0  00:00        0.00
  28-043               JUNCTION  -nan(ind)     0.00   984.86     0  00:00        0.00
  28-044               JUNCTION  -nan(ind)     0.00   985.25     0  00:00        0.00
  28-045               JUNCTION  -nan(ind)     0.00   985.50     0  00:00        0.00
  28-046               JUNCTION  -nan(ind)     0.00   986.07     0  00:00        0.00
  28-046A              JUNCTION  -nan(ind)     0.00   986.13     0  00:00        0.00
  28-047               JUNCTION  -nan(ind)     0.00   986.21     0  00:00        0.00
  28-048               JUNCTION  -nan(ind)     0.00   986.51     0  00:00        0.00
  28-049               JUNCTION  -nan(ind)     0.00   987.00     0  00:00        0.00
  28-050               JUNCTION  -nan(ind)     0.00   987.35     0  00:00        0.00
  28-051               JUNCTION  -nan(ind)     0.00   987.45     0  00:00        0.00
  28-052               JUNCTION  -nan(ind)     0.00   987.64     0  00:00        0.00
  28-053               JUNCTION  -nan(ind)     0.00   987.87     0  00:00        0.00
  28-054               JUNCTION  -nan(ind)     0.00   987.92     0  00:00        0.00
  28-127               JUNCTION  -nan(ind)     0.00   913.55     0  00:00        0.00
  28-128               JUNCTION  -nan(ind)     0.00   948.48     0  00:00        0.00
  28-129               JUNCTION  -nan(ind)     0.00   968.48     0  00:00        0.00
  28-130               JUNCTION  -nan(ind)     0.00   971.18     0  00:00        0.00
  28-131               JUNCTION  -nan(ind)     0.00   971.82     0  00:00        0.00
  28-132               JUNCTION  -nan(ind)     0.00   972.51     0  00:00        0.00
  28-133               JUNCTION  -nan(ind)     0.00   973.20     0  00:00        0.00
  28-134               JUNCTION  -nan(ind)     0.00   973.43     0  00:00        0.00
  28-135               JUNCTION  -nan(ind)     0.00   973.67     0  00:00        0.00
  28-136               JUNCTION  -nan(ind)     0.00   974.11     0  00:00        0.00
  28-137               JUNCTION  -nan(ind)     0.00   974.53     0  00:00        0.00
  28-138               JUNCTION  -nan(ind)     0.00   974.86     0  00:00        0.00
  28-139               JUNCTION  -nan(ind)     0.00   975.15     0  00:00        0.00
  28-140               JUNCTION  -nan(ind)     0.00   975.73     0  00:00        0.00
  28-141               JUNCTION  -nan(ind)     0.00   976.22     0  00:00        0.00
  28-142               JUNCTION  -nan(ind)     0.00   976.90     0  00:00        0.00
  28-143               JUNCTION  -nan(ind)     0.00   977.53     0  00:00        0.00
  28-144               JUNCTION  -nan(ind)     0.00   978.10     0  00:00        0.00
  28-145               JUNCTION  -nan(ind)     0.00   979.03     0  00:00        0.00
  28-146               JUNCTION  -nan(ind)     0.00   979.67     0  00:00        0.00
  28-305               JUNCTION  -nan(ind)     0.00   987.28     0  00:00        0.00
  28-306               JUNCTION  -nan(ind)     0.00   988.42     0  00:00        0.00
  28-307               JUNCTION  -nan(ind)     0.00   988.78     0  00:00        0.00
  28-308               JUNCTION  -nan(ind)     0.00   989.21     0  00:00        0.00
  29-001               JUNCTION  -nan(ind)     0.00   984.68     0  00:00        0.00
  29-002               JUNCTION  -nan(ind)     0.00   984.72     0  00:00        0.00
  29-003               JUNCTION  -nan(ind)     0.00   985.39     0  00:00        0.00
  29-004               JUNCTION  -nan(ind)     0.00   985.79     0  00:00        0.00
  29-005               JUNCTION  -nan(ind)     0.00   985.97     0  00:00        0.00
  29-006               JUNCTION  -nan(ind)     0.00   986.15     0  00:00        0.00
  29-007               JUNCTION  -nan(ind)     0.00   986.19     0  00:00        0.00
  29-008               JUNCTION  -nan(ind)     0.00   986.64     0  00:00        0.00
  29-009               JUNCTION  -nan(ind)     0.00   987.25     0  00:00        0.00
  29-009A              JUNCTION  -nan(ind)     0.00   987.26     0  00:00        0.00
  29-009B              JUNCTION  -nan(ind)     0.00   987.59     0  00:00        0.00
  29-010               JUNCTION  -nan(ind)     0.00   987.71     0  00:00        0.00
  29-011               JUNCTION  -nan(ind)     0.00   987.91     0  00:00        0.00
  29-012               JUNCTION  -nan(ind)     0.00   988.06     0  00:00        0.00
  29-013               JUNCTION  -nan(ind)     0.00   988.60     0  00:00        0.00
  29-021               JUNCTION  -nan(ind)     0.00   988.75     0  00:00        0.00
  29-022               JUNCTION  -nan(ind)     0.00   989.56     0  00:00        0.00
  29-023               JUNCTION  -nan(ind)     0.00   991.52     0  00:00        0.00
  29-024               JUNCTION  -nan(ind)     0.00   992.00     0  00:00        0.00
  29-025               JUNCTION  -nan(ind)     0.00   992.47     0  00:00        0.00
  29-026               JUNCTION  -nan(ind)     0.00   992.94     0  00:00        0.00
  29-027               JUNCTION  -nan(ind)     0.00   993.71     0  00:00        0.00
  29-028               JUNCTION  -nan(ind)     0.00   994.31     0  00:00        0.00
  29-029               JUNCTION  -nan(ind)     0.00   994.91     0  00:00        0.00
  29-030               JUNCTION  -nan(ind)     0.00   995.51     0  00:00        0.00
  29-031               JUNCTION  -nan(ind)     0.00   996.11     0  00:00        0.00
  29-056               JUNCTION  -nan(ind)     0.00   996.67     0  00:00        0.00
  30-026               JUNCTION  -nan(ind)     0.00   978.78     0  00:00        0.00
  30-027               JUNCTION  -nan(ind)     0.00   979.10     0  00:00        0.00
  30-028               JUNCTION  -nan(ind)     0.00   979.43     0  00:00        0.00
  30-029               JUNCTION  -nan(ind)     0.00   979.73     0  00:00        0.00
  30-030               JUNCTION  -nan(ind)     0.00   980.08     0  00:00        0.00
  30-031               JUNCTION  -nan(ind)     0.00   980.49     0  00:00        0.00
  30-032               JUNCTION  -nan(ind)     0.00   980.68     0  00:00        0.00
  30-033               JUNCTION  -nan(ind)     0.00   980.90     0  00:00        0.00
  30-034               JUNCTION  -nan(ind)     0.00   981.12     0  00:00        0.00
  32-001               JUNCTION  -nan(ind)     0.00   985.07     0  00:00        0.00
  32-002               JUNCTION  -nan(ind)     0.00   985.71     0  00:00        0.00
  32-003               JUNCTION  -nan(ind)     0.00   986.33     0  00:00        0.00
  32-004               JUNCTION  -nan(ind)     0.00   986.94     0  00:00        0.00
  32-005               JUNCTION  -nan(ind)     0.00   987.53     0  00:00        0.00
  32-006               JUNCTION  -nan(ind)     0.00   988.03     0  00:00        0.00
  32-009               JUNCTION  -nan(ind)     0.00   988.62     0  00:00        0.00
  32-010               JUNCTION  -nan(ind)     0.00   989.14     0  00:00        0.00
  32-029               JUNCTION  -nan(ind)     0.00   988.23     0  00:00        0.00
  32-030               JUNCTION  -nan(ind)     0.00   988.50     0  00:00        0.00
  32-034               JUNCTION  -nan(ind)     0.00   988.96     0  00:00        0.00
  32-035               JUNCTION  -nan(ind)     0.00   989.32     0  00:00        0.00
  32-036               JUNCTION  -nan(ind)     0.00   989.60     0  00:00        0.00
  32-046               JUNCTION  -nan(ind)     0.00   979.86     0  00:00        0.00
  32-047               JUNCTION  -nan(ind)     0.00   980.50     0  00:00        0.00
  32-048               JUNCTION  -nan(ind)     0.00   981.15     0  00:00        0.00
  32-049               JUNCTION  -nan(ind)     0.00   981.78     0  00:00        0.00
  32-050               JUNCTION  -nan(ind)     0.00   982.40     0  00:00        0.00
  32-051               JUNCTION  -nan(ind)     0.00   983.02     0  00:00        0.00
  32-051X              JUNCTION  -nan(ind)     0.00   983.08     0  00:00        0.00
  32-052               JUNCTION  -nan(ind)     0.00   983.65     0  00:00        0.00
  32-053               JUNCTION  -nan(ind)     0.00   984.21     0  00:00        0.00
  32-054               JUNCTION  -nan(ind)     0.00   984.76     0  00:00        0.00
  32-055               JUNCTION  -nan(ind)     0.00   985.32     0  00:00        0.00
  32-056               JUNCTION  -nan(ind)     0.00   985.64     0  00:00        0.00
  32-057               JUNCTION  -nan(ind)     0.00   986.21     0  00:00        0.00
  32-058               JUNCTION  -nan(ind)     0.00   986.79     0  00:00        0.00
  32-059               JUNCTION  -nan(ind)     0.00   987.36     0  00:00        0.00
  32-059X              JUNCTION  -nan(ind)     0.00   987.41     0  00:00        0.00
  32-060               JUNCTION  -nan(ind)     0.00   987.57     0  00:00        0.00
  32-060A              JUNCTION  -nan(ind)     0.00   987.85     0  00:00        0.00
  32-061               JUNCTION  -nan(ind)     0.00   988.29     0  00:00        0.00
  32-062               JUNCTION  -nan(ind)     0.00   988.82     0  00:00        0.00
  32-063               JUNCTION  -nan(ind)     0.00   989.26     0  00:00        0.00
  32-063X              JUNCTION  -nan(ind)     0.00   989.50     0  00:00        0.00
  32-111               JUNCTION  -nan(ind)     0.00   989.66     0  00:00        0.00
  33-007               JUNCTION  -nan(ind)     0.00   977.15     0  00:00        0.00
  33-007A              JUNCTION  -nan(ind)     0.00   977.38     0  00:00        0.00
  33-008               JUNCTION  -nan(ind)     0.00   977.71     0  00:00        0.00
  33-009               JUNCTION  -nan(ind)     0.00   978.34     0  00:00        0.00
  33-009A              JUNCTION  -nan(ind)     0.00   978.02     0  00:00        0.00
  33-010               JUNCTION  -nan(ind)     0.00   978.77     0  00:00        0.00
  33-011               JUNCTION  -nan(ind)     0.00   979.13     0  00:00        0.00
  33-012               JUNCTION  -nan(ind)     0.00   980.09     0  00:00        0.00
  33-023               JUNCTION  -nan(ind)     0.00   980.84     0  00:00        0.00
  33-024               JUNCTION  -nan(ind)     0.00   981.65     0  00:00        0.00
  33-025               JUNCTION  -nan(ind)     0.00   982.12     0  00:00        0.00
  33-026               JUNCTION  -nan(ind)     0.00   982.81     0  00:00        0.00
  33-026A              JUNCTION  -nan(ind)     0.00   983.02     0  00:00        0.00
  33-027               JUNCTION  -nan(ind)     0.00   983.66     0  00:00        0.00
  33-028               JUNCTION  -nan(ind)     0.00   984.23     0  00:00        0.00
  33-074               JUNCTION  -nan(ind)     0.00   981.01     0  00:00        0.00
  33-075               JUNCTION  -nan(ind)     0.00   980.50     0  00:00        0.00
  33-078               JUNCTION  -nan(ind)     0.00   978.90     0  00:00        0.00
  IPSN                 JUNCTION  -nan(ind)     0.00   755.50     0  00:00        0.00
  IPSS                 JUNCTION  -nan(ind)     0.00   752.40     0  00:00        0.00
  JCT-100              JUNCTION  -nan(ind)     0.00   790.50     0  00:00        0.00
  JCT-114              JUNCTION  -nan(ind)     0.00   752.10     0  00:00        0.00
  JCT-120              JUNCTION  -nan(ind)     0.00   988.00     0  00:00        0.00
  JCT-16               JUNCTION  -nan(ind)     0.00   805.77     0  00:00        0.00
  JCT-278              JUNCTION  -nan(ind)     0.00   760.82     0  00:00        0.00
  JCT-284              JUNCTION  -nan(ind)     0.00   761.58     0  00:00        0.00
  JCT-286              JUNCTION  -nan(ind)     0.00   763.00     0  00:00        0.00
  JCT-288              JUNCTION  -nan(ind)     0.00   763.50     0  00:00        0.00
  JCT-290              JUNCTION  -nan(ind)     0.00   763.87     0  00:00        0.00
  JCT-292              JUNCTION  -nan(ind)     0.00   764.31     0  00:00        0.00
  JCT-294              JUNCTION  -nan(ind)     0.00   765.58     0  00:00        0.00
  JCT-306              JUNCTION  -nan(ind)     0.00   953.70     0  00:00        0.00
  JCT-308              JUNCTION  -nan(ind)     0.00   868.73     0  00:00        0.00
  JCT-310              JUNCTION  -nan(ind)     0.00   852.50     0  00:00        0.00
  JCT-314              JUNCTION  -nan(ind)     0.00   828.40     0  00:00        0.00
  JCT-318              JUNCTION  -nan(ind)     0.00   815.89     0  00:00        0.00
  JCT-320              JUNCTION  -nan(ind)     0.00   862.00     0  00:00        0.00
  JCT-328              JUNCTION  -nan(ind)     0.00   805.40     0  00:00        0.00
  JCT-330              JUNCTION  -nan(ind)     0.00   777.64     0  00:00        0.00
  JCT-332              JUNCTION  -nan(ind)     0.00   779.58     0  00:00        0.00
  JCT-334              JUNCTION  -nan(ind)     0.00   790.60     0  00:00        0.00
  JCT-336              JUNCTION  -nan(ind)     0.00   771.00     0  00:00        0.00
  JCT-338              JUNCTION  -nan(ind)     0.00   766.50     0  00:00        0.00
  JCT-340              JUNCTION  -nan(ind)     0.00   771.50     0  00:00        0.00
  JCT-342              JUNCTION  -nan(ind)     0.00   776.51     0  00:00        0.00
  JCT-344              JUNCTION  -nan(ind)     0.00   766.84     0  00:00        0.00
  JCT-346              JUNCTION  -nan(ind)     0.00   938.40     0  00:00        0.00
  JCT-350              JUNCTION  -nan(ind)     0.00   956.93     0  00:00        0.00
  JCT-352              JUNCTION  -nan(ind)     0.00   975.28     0  00:00        0.00
  JCT-354              JUNCTION  -nan(ind)     0.00   980.70     0  00:00        0.00
  JCT-358              JUNCTION  -nan(ind)     0.00   973.85     0  00:00        0.00
  JCT-362              JUNCTION  -nan(ind)     0.00   979.58     0  00:00        0.00
  JCT-368              JUNCTION  -nan(ind)     0.00   963.48     0  00:00        0.00
  JCT-370              JUNCTION  -nan(ind)     0.00   964.29     0  00:00        0.00
  JCT-372              JUNCTION  -nan(ind)     0.00   965.27     0  00:00        0.00
  JCT-374              JUNCTION  -nan(ind)     0.00   966.26     0  00:00        0.00
  JCT-376              JUNCTION  -nan(ind)     0.00   909.58     0  00:00        0.00
  JCT-378              JUNCTION  -nan(ind)     0.00   929.68     0  00:00        0.00
  JCT-380              JUNCTION  -nan(ind)     0.00   958.00     0  00:00        0.00
  JCT-382              JUNCTION  -nan(ind)     0.00   968.00     0  00:00        0.00
  JCT-384              JUNCTION  -nan(ind)     0.00   970.00     0  00:00        0.00
  JCT-386              JUNCTION  -nan(ind)     0.00   972.00     0  00:00        0.00
  JCT-388              JUNCTION  -nan(ind)     0.00   952.20     0  00:00        0.00
  JCT-390              JUNCTION  -nan(ind)     0.00   952.92     0  00:00        0.00
  JCT-392              JUNCTION  -nan(ind)     0.00   953.65     0  00:00        0.00
  JCT-394              JUNCTION  -nan(ind)     0.00   954.61     0  00:00        0.00
  JCT-396              JUNCTION  -nan(ind)     0.00   955.15     0  00:00        0.00
  JCT-398              JUNCTION  -nan(ind)     0.00   956.10     0  00:00        0.00
  JCT-400              JUNCTION  -nan(ind)     0.00   950.33     0  00:00        0.00
  JCT-402              JUNCTION  -nan(ind)     0.00   951.22     0  00:00        0.00
  JCT-404              JUNCTION  -nan(ind)     0.00   952.12     0  00:00        0.00
  JCT-406              JUNCTION  -nan(ind)     0.00   949.23     0  00:00        0.00
  JCT-410              JUNCTION  -nan(ind)     0.00   940.40     0  00:00        0.00
  JCT-412              JUNCTION  -nan(ind)     0.00   941.83     0  00:00        0.00
  JCT-414              JUNCTION  -nan(ind)     0.00   942.95     0  00:00        0.00
  JCT-416              JUNCTION  -nan(ind)     0.00   943.92     0  00:00        0.00
  JCT-418              JUNCTION  -nan(ind)     0.00   945.48     0  00:00        0.00
  JCT-420              JUNCTION  -nan(ind)     0.00   946.80     0  00:00        0.00
  JCT-422              JUNCTION  -nan(ind)     0.00   948.26     0  00:00        0.00
  JCT-424              JUNCTION  -nan(ind)     0.00   954.11     0  00:00        0.00
  JCT-426              JUNCTION  -nan(ind)     0.00   954.64     0  00:00        0.00
  JCT-428              JUNCTION  -nan(ind)     0.00   955.55     0  00:00        0.00
  JCT-434              JUNCTION  -nan(ind)     0.00   959.22     0  00:00        0.00
  JCT-436              JUNCTION  -nan(ind)     0.00   960.89     0  00:00        0.00
  JCT-438              JUNCTION  -nan(ind)     0.00   962.76     0  00:00        0.00
  JCT-444              JUNCTION  -nan(ind)     0.00   957.43     0  00:00        0.00
  JCT-446              JUNCTION  -nan(ind)     0.00   964.82     0  00:00        0.00
  JCT-448              JUNCTION  -nan(ind)     0.00   966.88     0  00:00        0.00
  JCT-450              JUNCTION  -nan(ind)     0.00   976.35     0  00:00        0.00
  JCT-452              JUNCTION  -nan(ind)     0.00   977.16     0  00:00        0.00
  JCT-454              JUNCTION  -nan(ind)     0.00   977.93     0  00:00        0.00
  JCT-456              JUNCTION  -nan(ind)     0.00   978.72     0  00:00        0.00
  JCT-458              JUNCTION  -nan(ind)     0.00   979.59     0  00:00        0.00
  JCT-460              JUNCTION  -nan(ind)     0.00   980.33     0  00:00        0.00
  JCT-462              JUNCTION  -nan(ind)     0.00   981.06     0  00:00        0.00
  JCT-464              JUNCTION  -nan(ind)     0.00   981.89     0  00:00        0.00
  JCT-468              JUNCTION  -nan(ind)     0.00   982.66     0  00:00        0.00
  JCT-470              JUNCTION  -nan(ind)     0.00   983.42     0  00:00        0.00
  JCT-472              JUNCTION  -nan(ind)     0.00   984.10     0  00:00        0.00
  JCT-474              JUNCTION  -nan(ind)     0.00   984.75     0  00:00        0.00
  JCT-476              JUNCTION  -nan(ind)     0.00   985.40     0  00:00        0.00
  JCT-478              JUNCTION  -nan(ind)     0.00   986.04     0  00:00        0.00
  JCT-480              JUNCTION  -nan(ind)     0.00   986.95     0  00:00        0.00
  JCT-482              JUNCTION  -nan(ind)     0.00   987.73     0  00:00        0.00
  JCT-484              JUNCTION  -nan(ind)     0.00   988.51     0  00:00        0.00
  JCT-486              JUNCTION  -nan(ind)     0.00   989.19     0  00:00        0.00
  JCT-488              JUNCTION  -nan(ind)     0.00   988.75     0  00:00        0.00
  JCT-490              JUNCTION  -nan(ind)     0.00   989.61     0  00:00        0.00
  JCT-492              JUNCTION  -nan(ind)     0.00   990.54     0  00:00        0.00
  JCT-494              JUNCTION  -nan(ind)     0.00   991.50     0  00:00        0.00
  JCT-496              JUNCTION  -nan(ind)     0.00   992.49     0  00:00        0.00
  JCT-498              JUNCTION  -nan(ind)     0.00   993.53     0  00:00        0.00
  JCT-500              JUNCTION  -nan(ind)     0.00   994.76     0  00:00        0.00
  JCT-502              JUNCTION  -nan(ind)     0.00   995.96     0  00:00        0.00
  JCT-504              JUNCTION  -nan(ind)     0.00   996.97     0  00:00        0.00
  JCT-506              JUNCTION  -nan(ind)     0.00   998.14     0  00:00        0.00
  JCT-508              JUNCTION  -nan(ind)     0.00   999.17     0  00:00        0.00
  JCT-510              JUNCTION  -nan(ind)     0.00  1000.24     0  00:00        0.00
  JCT-512              JUNCTION  -nan(ind)     0.00  1001.41     0  00:00        0.00
  JCT-514              JUNCTION  -nan(ind)     0.00  1002.67     0  00:00        0.00
  JCT-518              JUNCTION  -nan(ind)     0.00   990.21     0  00:00        0.00
  JCT-520              JUNCTION  -nan(ind)     0.00   990.96     0  00:00        0.00
  JCT-522              JUNCTION  -nan(ind)     0.00   991.66     0  00:00        0.00
  JCT-524              JUNCTION  -nan(ind)     0.00   992.28     0  00:00        0.00
  JCT-526              JUNCTION  -nan(ind)     0.00   992.78     0  00:00        0.00
  JCT-528              JUNCTION  -nan(ind)     0.00   993.33     0  00:00        0.00
  JCT-564              JUNCTION  -nan(ind)     0.00   975.00     0  00:00        0.00
  JCT-566              JUNCTION  -nan(ind)     0.00   973.62     0  00:00        0.00
  JCT-568              JUNCTION  -nan(ind)     0.00   965.00     0  00:00        0.00
  JCT-570              JUNCTION  -nan(ind)     0.00   960.00     0  00:00        0.00
  JCT-572              JUNCTION  -nan(ind)     0.00   955.00     0  00:00        0.00
  JCT-574              JUNCTION  -nan(ind)     0.00   953.57     0  00:00        0.00
  JCT-576              JUNCTION  -nan(ind)     0.00   952.14     0  00:00        0.00
  JCT-578              JUNCTION  -nan(ind)     0.00   950.73     0  00:00        0.00
  JCT-580              JUNCTION  -nan(ind)     0.00   949.33     0  00:00        0.00
  JCT-582              JUNCTION  -nan(ind)     0.00   947.56     0  00:00        0.00
  JCT-584              JUNCTION  -nan(ind)     0.00   946.10     0  00:00        0.00
  JCT-586              JUNCTION  -nan(ind)     0.00   944.58     0  00:00        0.00
  JCT-588              JUNCTION  -nan(ind)     0.00   943.10     0  00:00        0.00
  JCT-590              JUNCTION  -nan(ind)     0.00   940.00     0  00:00        0.00
  JCT-592              JUNCTION  -nan(ind)     0.00   938.68     0  00:00        0.00
  JCT-596              JUNCTION  -nan(ind)     0.00   937.12     0  00:00        0.00
  JCT-598              JUNCTION  -nan(ind)     0.00   990.00     0  00:00        0.00
  JCT-60               JUNCTION  -nan(ind)     0.00   991.40     0  00:00        0.00
  JCT-600              JUNCTION  -nan(ind)     0.00   970.00     0  00:00        0.00
  JCT-602              JUNCTION  -nan(ind)     0.00   950.00     0  00:00        0.00
  JCT-604              JUNCTION  -nan(ind)     0.00   935.95     0  00:00        0.00
  JCT-606              JUNCTION  -nan(ind)     0.00   934.87     0  00:00        0.00
  JCT-62               JUNCTION  -nan(ind)     0.00   818.25     0  00:00        0.00
  JCT-632              JUNCTION  -nan(ind)     0.00   987.50     0  00:00        0.00
  JCT-634              JUNCTION  -nan(ind)     0.00   987.60     0  00:00        0.00
  JCT-636              JUNCTION  -nan(ind)     0.00   986.90     0  00:00        0.00
  JCT-64               JUNCTION  -nan(ind)     0.00   813.32     0  00:00        0.00
  JCT-640              JUNCTION  -nan(ind)     0.00   986.27     0  00:00        0.00
  JCT-66               JUNCTION  -nan(ind)     0.00   812.07     0  00:00        0.00
  JCT-68               JUNCTION  -nan(ind)     0.00   811.44     0  00:00        0.00
  JCT-70               JUNCTION  -nan(ind)     0.00   751.80     0  00:00        0.00
  JCT-72               JUNCTION  -nan(ind)     0.00   749.78     0  00:00        0.00
  JCT-74               JUNCTION  -nan(ind)     0.00   823.53     0  00:00        0.00
[...]
  CDT-297                 1.00   -nan(ind)  -nan(ind)  -nan(ind)  -nan(ind)  -nan(ind)  -nan(ind)  -nan(ind)  -nan(ind)  -nan(ind)
  CDT-299                 1.00   -nan(ind)  -nan(ind)  -nan(ind)  -nan(ind)  -nan(ind)  -nan(ind)  -nan(ind)  -nan(ind)  -nan(ind)
  CDT-307                 1.00   -nan(ind)  -nan(ind)  -nan(ind)  -nan(ind)  -nan(ind)  -nan(ind)  -nan(ind)  -nan(ind)  -nan(ind)
  CDT-309                 1.00   -nan(ind)  -nan(ind)  -nan(ind)  -nan(ind)  -nan(ind)  -nan(ind)  -nan(ind)  -nan(ind)  -nan(ind)
  CDT-311                 1.00   -nan(ind)  -nan(ind)  -nan(ind)  -nan(ind)  -nan(ind)  -nan(ind)  -nan(ind)  -nan(ind)  -nan(ind)
  CDT-313                 1.00   -nan(ind)  -nan(ind)  -nan(ind)  -nan(ind)  -nan(ind)  -nan(ind)  -nan(ind)  -nan(ind)  -nan(ind)
  CDT-315                 1.00   -nan(ind)  -nan(ind)  -nan(ind)  -nan(ind)  -nan(ind)  -nan(ind)  -nan(ind)  -nan(ind)  -nan(ind)
  CDT-317                 1.00   -nan(ind)  -nan(ind)  -nan(ind)  -nan(ind)  -nan(ind)  -nan(ind)  -nan(ind)  -nan(ind)  -nan(ind)
  CDT-319                 1.00   -nan(ind)  -nan(ind)  -nan(ind)  -nan(ind)  -nan(ind)  -nan(ind)  -nan(ind)  -nan(ind)  -nan(ind)
  CDT-321                 1.00   -nan(ind)  -nan(ind)  -nan(ind)  -nan(ind)  -nan(ind)  -nan(ind)  -nan(ind)  -nan(ind)  -nan(ind)
  CDT-323                 1.00   -nan(ind)  -nan(ind)  -nan(ind)  -nan(ind)  -nan(ind)  -nan(ind)  -nan(ind)  -nan(ind)  -nan(ind)
  CDT-325                 1.00   -nan(ind)  -nan(ind)  -nan(ind)  -nan(ind)  -nan(ind)  -nan(ind)  -nan(ind)  -nan(ind)  -nan(ind)
  CDT-327                 1.00   -nan(ind)  -nan(ind)  -nan(ind)  -nan(ind)  -nan(ind)  -nan(ind)  -nan(ind)  -nan(ind)  -nan(ind)
  CDT-329                 1.00   -nan(ind)  -nan(ind)  -nan(ind)  -nan(ind)  -nan(ind)  -nan(ind)  -nan(ind)  -nan(ind)  -nan(ind)
  CDT-33                  1.00   -nan(ind)  -nan(ind)  -nan(ind)  -nan(ind)  -nan(ind)  -nan(ind)  -nan(ind)  -nan(ind)  -nan(ind)
  CDT-331                 1.00   -nan(ind)  -nan(ind)  -nan(ind)  -nan(ind)  -nan(ind)  -nan(ind)  -nan(ind)  -nan(ind)  -nan(ind)
  CDT-333                 1.00   -nan(ind)  -nan(ind)  -nan(ind)  -nan(ind)  -nan(ind)  -nan(ind)  -nan(ind)  -nan(ind)  -nan(ind)
  CDT-335                 1.00   -nan(ind)  -nan(ind)  -nan(ind)  -nan(ind)  -nan(ind)  -nan(ind)  -nan(ind)  -nan(ind)  -nan(ind)
  CDT-337                 1.00   -nan(ind)  -nan(ind)  -nan(ind)  -nan(ind)  -nan(ind)  -nan(ind)  -nan(ind)  -nan(ind)  -nan(ind)
  CDT-339                 1.00   -nan(ind)  -nan(ind)  -nan(ind)  -nan(ind)  -nan(ind)  -nan(ind)  -nan(ind)  -nan(ind)  -nan(ind)
  CDT-341                 1.00   -nan(ind)  -nan(ind)  -nan(ind)  -nan(ind)  -nan(ind)  -nan(ind)  -nan(ind)  -nan(ind)  -nan(ind)
  CDT-343                 1.00   -nan(ind)  -nan(ind)  -nan(ind)  -nan(ind)  -nan(ind)  -nan(ind)  -nan(ind)  -nan(ind)  -nan(ind)
  CDT-345                 1.00   -nan(ind)  -nan(ind)  -nan(ind)  -nan(ind)  -nan(ind)  -nan(ind)  -nan(ind)  -nan(ind)  -nan(ind)
  CDT-347                 1.00   -nan(ind)  -nan(ind)  -nan(ind)  -nan(ind)  -nan(ind)  -nan(ind)  -nan(ind)  -nan(ind)  -nan(ind)
  CDT-349                 1.00   -nan(ind)  -nan(ind)  -nan(ind)  -nan(ind)  -nan(ind)  -nan(ind)  -nan(ind)  -nan(ind)  -nan(ind)
  CDT-35                  1.00   -nan(ind)  -nan(ind)  -nan(ind)  -nan(ind)  -nan(ind)  -nan(ind)  -nan(ind)  -nan(ind)  -nan(ind)
  CDT-353                 1.00   -nan(ind)  -nan(ind)  -nan(ind)  -nan(ind)  -nan(ind)  -nan(ind)  -nan(ind)  -nan(ind)  -nan(ind)
  CDT-361                 1.00   -nan(ind)  -nan(ind)  -nan(ind)  -nan(ind)  -nan(ind)  -nan(ind)  -nan(ind)  -nan(ind)  -nan(ind)
  CDT-363                 1.00   -nan(ind)  -nan(ind)  -nan(ind)  -nan(ind)  -nan(ind)  -nan(ind)  -nan(ind)  -nan(ind)  -nan(ind)
  CDT-365                 1.00   -nan(ind)  -nan(ind)  -nan(ind)  -nan(ind)  -nan(ind)  -nan(ind)  -nan(ind)  -nan(ind)  -nan(ind)
  CDT-367                 1.00   -nan(ind)  -nan(ind)  -nan(ind)  -nan(ind)  -nan(ind)  -nan(ind)  -nan(ind)  -nan(ind)  -nan(ind)
  CDT-369                 1.00   -nan(ind)  -nan(ind)  -nan(ind)  -nan(ind)  -nan(ind)  -nan(ind)  -nan(ind)  -nan(ind)  -nan(ind)
  CDT-37                  1.00   -nan(ind)  -nan(ind)  -nan(ind)  -nan(ind)  -nan(ind)  -nan(ind)  -nan(ind)  -nan(ind)  -nan(ind)
  CDT-371                 1.00   -nan(ind)  -nan(ind)  -nan(ind)  -nan(ind)  -nan(ind)  -nan(ind)  -nan(ind)  -nan(ind)  -nan(ind)
  CDT-375                 1.00   -nan(ind)  -nan(ind)  -nan(ind)  -nan(ind)  -nan(ind)  -nan(ind)  -nan(ind)  -nan(ind)  -nan(ind)
  CDT-377                 1.00   -nan(ind)  -nan(ind)  -nan(ind)  -nan(ind)  -nan(ind)  -nan(ind)  -nan(ind)  -nan(ind)  -nan(ind)
  CDT-379                 1.00   -nan(ind)  -nan(ind)  -nan(ind)  -nan(ind)  -nan(ind)  -nan(ind)  -nan(ind)  -nan(ind)  -nan(ind)
  CDT-381                 1.00   -nan(ind)  -nan(ind)  -nan(ind)  -nan(ind)  -nan(ind)  -nan(ind)  -nan(ind)  -nan(ind)  -nan(ind)
  CDT-385                 1.00   -nan(ind)  -nan(ind)  -nan(ind)  -nan(ind)  -nan(ind)  -nan(ind)  -nan(ind)  -nan(ind)  -nan(ind)
  CDT-387                 1.00   -nan(ind)  -nan(ind)  -nan(ind)  -nan(ind)  -nan(ind)  -nan(ind)  -nan(ind)  -nan(ind)  -nan(ind)
  CDT-389                 1.00   -nan(ind)  -nan(ind)  -nan(ind)  -nan(ind)  -nan(ind)  -nan(ind)  -nan(ind)  -nan(ind)  -nan(ind)
  CDT-391                 1.00   -nan(ind)  -nan(ind)  -nan(ind)  -nan(ind)  -nan(ind)  -nan(ind)  -nan(ind)  -nan(ind)  -nan(ind)
  CDT-393                 1.00   -nan(ind)  -nan(ind)  -nan(ind)  -nan(ind)  -nan(ind)  -nan(ind)  -nan(ind)  -nan(ind)  -nan(ind)
  CDT-395                 1.00   -nan(ind)  -nan(ind)  -nan(ind)  -nan(ind)  -nan(ind)  -nan(ind)  -nan(ind)  -nan(ind)  -nan(ind)
  CDT-397                 1.00   -nan(ind)  -nan(ind)  -nan(ind)  -nan(ind)  -nan(ind)  -nan(ind)  -nan(ind)  -nan(ind)  -nan(ind)
  CDT-399                 1.00   -nan(ind)  -nan(ind)  -nan(ind)  -nan(ind)  -nan(ind)  -nan(ind)  -nan(ind)  -nan(ind)  -nan(ind)
  CDT-407                 1.00   -nan(ind)  -nan(ind)  -nan(ind)  -nan(ind)  -nan(ind)  -nan(ind)  -nan(ind)  -nan(ind)  -nan(ind)
  CDT-409                 1.00   -nan(ind)  -nan(ind)  -nan(ind)  -nan(ind)  -nan(ind)  -nan(ind)  -nan(ind)  -nan(ind)  -nan(ind)
  CDT-415                 1.00   -nan(ind)  -nan(ind)  -nan(ind)  -nan(ind)  -nan(ind)  -nan(ind)  -nan(ind)  -nan(ind)  -nan(ind)
  CDT-417                 1.00   -nan(ind)  -nan(ind)  -nan(ind)  -nan(ind)  -nan(ind)  -nan(ind)  -nan(ind)  -nan(ind)  -nan(ind)
  CDT-419                 1.00   -nan(ind)  -nan(ind)  -nan(ind)  -nan(ind)  -nan(ind)  -nan(ind)  -nan(ind)  -nan(ind)  -nan(ind)
  CDT-421                 1.00   -nan(ind)  -nan(ind)  -nan(ind)  -nan(ind)  -nan(ind)  -nan(ind)  -nan(ind)  -nan(ind)  -nan(ind)
  CDT-423                 1.00   -nan(ind)  -nan(ind)  -nan(ind)  -nan(ind)  -nan(ind)  -nan(ind)  -nan(ind)  -nan(ind)  -nan(ind)
  CDT-425                 1.00   -nan(ind)  -nan(ind)  -nan(ind)  -nan(ind)  -nan(ind)  -nan(ind)  -nan(ind)  -nan(ind)  -nan(ind)
  CDT-427                 1.00   -nan(ind)  -nan(ind)  -nan(ind)  -nan(ind)  -nan(ind)  -nan(ind)  -nan(ind)  -nan(ind)  -nan(ind)
  CDT-429                 1.00   -nan(ind)  -nan(ind)  -nan(ind)  -nan(ind)  -nan(ind)  -nan(ind)  -nan(ind)  -nan(ind)  -nan(ind)
  CDT-43                  1.00   -nan(ind)  -nan(ind)  -nan(ind)  -nan(ind)  -nan(ind)  -nan(ind)  -nan(ind)  -nan(ind)  -nan(ind)
  CDT-431                 1.00   -nan(ind)  -nan(ind)  -nan(ind)  -nan(ind)  -nan(ind)  -nan(ind)  -nan(ind)  -nan(ind)  -nan(ind)
  CDT-433                 1.00   -nan(ind)  -nan(ind)  -nan(ind)  -nan(ind)  -nan(ind)  -nan(ind)  -nan(ind)  -nan(ind)  -nan(ind)
  CDT-435                 1.00   -nan(ind)  -nan(ind)  -nan(ind)  -nan(ind)  -nan(ind)  -nan(ind)  -nan(ind)  -nan(ind)  -nan(ind)
  CDT-437                 1.00   -nan(ind)  -nan(ind)  -nan(ind)  -nan(ind)  -nan(ind)  -nan(ind)  -nan(ind)  -nan(ind)  -nan(ind)
  CDT-439                 1.00   -nan(ind)  -nan(ind)  -nan(ind)  -nan(ind)  -nan(ind)  -nan(ind)  -nan(ind)  -nan(ind)  -nan(ind)
  CDT-441                 1.00   -nan(ind)  -nan(ind)  -nan(ind)  -nan(ind)  -nan(ind)  -nan(ind)  -nan(ind)  -nan(ind)  -nan(ind)
  CDT-443                 1.00   -nan(ind)  -nan(ind)  -nan(ind)  -nan(ind)  -nan(ind)  -nan(ind)  -nan(ind)  -nan(ind)  -nan(ind)
  CDT-445                 1.00   -nan(ind)  -nan(ind)  -nan(ind)  -nan(ind)  -nan(ind)  -nan(ind)  -nan(ind)  -nan(ind)  -nan(ind)
  CDT-447                 1.00   -nan(ind)  -nan(ind)  -nan(ind)  -nan(ind)  -nan(ind)  -nan(ind)  -nan(ind)  -nan(ind)  -nan(ind)
  CDT-449                 1.00   -nan(ind)  -nan(ind)  -nan(ind)  -nan(ind)  -nan(ind)  -nan(ind)  -nan(ind)  -nan(ind)  -nan(ind)
  CDT-45                  1.00   -nan(ind)  -nan(ind)  -nan(ind)  -nan(ind)  -nan(ind)  -nan(ind)  -nan(ind)  -nan(ind)  -nan(ind)
  CDT-451                 1.00   -nan(ind)  -nan(ind)  -nan(ind)  -nan(ind)  -nan(ind)  -nan(ind)  -nan(ind)  -nan(ind)  -nan(ind)
  CDT-453                 1.00   -nan(ind)  -nan(ind)  -nan(ind)  -nan(ind)  -nan(ind)  -nan(ind)  -nan(ind)  -nan(ind)  -nan(ind)
  CDT-455                 1.00   -nan(ind)  -nan(ind)  -nan(ind)  -nan(ind)  -nan(ind)  -nan(ind)  -nan(ind)  -nan(ind)  -nan(ind)
  CDT-457                 1.00   -nan(ind)  -nan(ind)  -nan(ind)  -nan(ind)  -nan(ind)  -nan(ind)  -nan(ind)  -nan(ind)  -nan(ind)
  CDT-459                 1.00   -nan(ind)  -nan(ind)  -nan(ind)  -nan(ind)  -nan(ind)  -nan(ind)  -nan(ind)  -nan(ind)  -nan(ind)
  CDT-461                 1.00   -nan(ind)  -nan(ind)  -nan(ind)  -nan(ind)  -nan(ind)  -nan(ind)  -nan(ind)  -nan(ind)  -nan(ind)
  CDT-463                 1.00   -nan(ind)  -nan(ind)  -nan(ind)  -nan(ind)  -nan(ind)  -nan(ind)  -nan(ind)  -nan(ind)  -nan(ind)
  CDT-465                 1.00   -nan(ind)  -nan(ind)  -nan(ind)  -nan(ind)  -nan(ind)  -nan(ind)  -nan(ind)  -nan(ind)  -nan(ind)
  CDT-467                 1.00   -nan(ind)  -nan(ind)  -nan(ind)  -nan(ind)  -nan(ind)  -nan(ind)  -nan(ind)  -nan(ind)  -nan(ind)
  CDT-469                 1.00   -nan(ind)  -nan(ind)  -nan(ind)  -nan(ind)  -nan(ind)  -nan(ind)  -nan(ind)  -nan(ind)  -nan(ind)
  CDT-47                  1.00   -nan(ind)  -nan(ind)  -nan(ind)  -nan(ind)  -nan(ind)  -nan(ind)  -nan(ind)  -nan(ind)  -nan(ind)
  CDT-471                 1.00   -nan(ind)  -nan(ind)  -nan(ind)  -nan(ind)  -nan(ind)  -nan(ind)  -nan(ind)  -nan(ind)  -nan(ind)
  CDT-473                 1.00   -nan(ind)  -nan(ind)  -nan(ind)  -nan(ind)  -nan(ind)  -nan(ind)  -nan(ind)  -nan(ind)  -nan(ind)
  CDT-475                 1.00   -nan(ind)  -nan(ind)  -nan(ind)  -nan(ind)  -nan(ind)  -nan(ind)  -nan(ind)  -nan(ind)  -nan(ind)
  CDT-477                 1.00   -nan(ind)  -nan(ind)  -nan(ind)  -nan(ind)  -nan(ind)  -nan(ind)  -nan(ind)  -nan(ind)  -nan(ind)
  CDT-479                 1.00   -nan(ind)  -nan(ind)  -nan(ind)  -nan(ind)  -nan(ind)  -nan(ind)  -nan(ind)  -nan(ind)  -nan(ind)
  CDT-481                 1.00   -nan(ind)  -nan(ind)  -nan(ind)  -nan(ind)  -nan(ind)  -nan(ind)  -nan(ind)  -nan(ind)  -nan(ind)
  CDT-483                 1.00   -nan(ind)  -nan(ind)  -nan(ind)  -nan(ind)  -nan(ind)  -nan(ind)  -nan(ind)  -nan(ind)  -nan(ind)
  CDT-485                 1.00   -nan(ind)  -nan(ind)  -nan(ind)  -nan(ind)  -nan(ind)  -nan(ind)  -nan(ind)  -nan(ind)  -nan(ind)
  CDT-489                 1.00   -nan(ind)  -nan(ind)  -nan(ind)  -nan(ind)  -nan(ind)  -nan(ind)  -nan(ind)  -nan(ind)  -nan(ind)
  CDT-49                  1.00   -nan(ind)  -nan(ind)  -nan(ind)  -nan(ind)  -nan(ind)  -nan(ind)  -nan(ind)  -nan(ind)  -nan(ind)
  CDT-491                 1.00   -nan(ind)  -nan(ind)  -nan(ind)  -nan(ind)  -nan(ind)  -nan(ind)  -nan(ind)  -nan(ind)  -nan(ind)
  CDT-493                 1.00   -nan(ind)  -nan(ind)  -nan(ind)  -nan(ind)  -nan(ind)  -nan(ind)  -nan(ind)  -nan(ind)  -nan(ind)
  CDT-495                 1.00   -nan(ind)  -nan(ind)  -nan(ind)  -nan(ind)  -nan(ind)  -nan(ind)  -nan(ind)  -nan(ind)  -nan(ind)
  CDT-497                 1.00   -nan(ind)  -nan(ind)  -nan(ind)  -nan(ind)  -nan(ind)  -nan(ind)  -nan(ind)  -nan(ind)  -nan(ind)
  CDT-499                 1.00   -nan(ind)  -nan(ind)  -nan(ind)  -nan(ind)  -nan(ind)  -nan(ind)  -nan(ind)  -nan(ind)  -nan(ind)
  CDT-51                  1.00   -nan(ind)  -nan(ind)  -nan(ind)  -nan(ind)  -nan(ind)  -nan(ind)  -nan(ind)  -nan(ind)  -nan(ind)
  CDT-531                 1.00   -nan(ind)  -nan(ind)  -nan(ind)  -nan(ind)  -nan(ind)  -nan(ind)  -nan(ind)  -nan(ind)  -nan(ind)
  CDT-533                 1.00   -nan(ind)  -nan(ind)  -nan(ind)  -nan(ind)  -nan(ind)  -nan(ind)  -nan(ind)  -nan(ind)  -nan(ind)
  CDT-535                 1.00   -nan(ind)  -nan(ind)  -nan(ind)  -nan(ind)  -nan(ind)  -nan(ind)  -nan(ind)  -nan(ind)  -nan(ind)
  CDT-537                 1.00   -nan(ind)  -nan(ind)  -nan(ind)  -nan(ind)  -nan(ind)  -nan(ind)  -nan(ind)  -nan(ind)  -nan(ind)
  CDT-539                 1.00   -nan(ind)  -nan(ind)  -nan(ind)  -nan(ind)  -nan(ind)  -nan(ind)  -nan(ind)  -nan(ind)  -nan(ind)
  CDT-541                 1.00   -nan(ind)  -nan(ind)  -nan(ind)  -nan(ind)  -nan(ind)  -nan(ind)  -nan(ind)  -nan(ind)  -nan(ind)
  CDT-543                 1.00   -nan(ind)  -nan(ind)  -nan(ind)  -nan(ind)  -nan(ind)  -nan(ind)  -nan(ind)  -nan(ind)  -nan(ind)
  CDT-545                 1.00   -nan(ind)  -nan(ind)  -nan(ind)  -nan(ind)  -nan(ind)  -nan(ind)  -nan(ind)  -nan(ind)  -nan(ind)
  CDT-547                 1.00   -nan(ind)  -nan(ind)  -nan(ind)  -nan(ind)  -nan(ind)  -nan(ind)  -nan(ind)  -nan(ind)  -nan(ind)
  CDT-549                 1.00   -nan(ind)  -nan(ind)  -nan(ind)  -nan(ind)  -nan(ind)  -nan(ind)  -nan(ind)  -nan(ind)  -nan(ind)
  CDT-55                  1.00   -nan(ind)  -nan(ind)  -nan(ind)  -nan(ind)  -nan(ind)  -nan(ind)  -nan(ind)  -nan(ind)  -nan(ind)
  CDT-551                 1.00   -nan(ind)  -nan(ind)  -nan(ind)  -nan(ind)  -nan(ind)  -nan(ind)  -nan(ind)  -nan(ind)  -nan(ind)
  CDT-553                 1.00   -nan(ind)  -nan(ind)  -nan(ind)  -nan(ind)  -nan(ind)  -nan(ind)  -nan(ind)  -nan(ind)  -nan(ind)
  CDT-555                 1.00   -nan(ind)  -nan(ind)  -nan(ind)  -nan(ind)  -nan(ind)  -nan(ind)  -nan(ind)  -nan(ind)  -nan(ind)
  CDT-557                 1.00   -nan(ind)  -nan(ind)  -nan(ind)  -nan(ind)  -nan(ind)  -nan(ind)  -nan(ind)  -nan(ind)  -nan(ind)
  CDT-563                 1.00   -nan(ind)  -nan(ind)  -nan(ind)  -nan(ind)  -nan(ind)  -nan(ind)  -nan(ind)  -nan(ind)  -nan(ind)
  CDT-565                 1.00   -nan(ind)  -nan(ind)  -nan(ind)  -nan(ind)  -nan(ind)  -nan(ind)  -nan(ind)  -nan(ind)  -nan(ind)
  CDT-567                 1.00   -nan(ind)  -nan(ind)  -nan(ind)  -nan(ind)  -nan(ind)  -nan(ind)  -nan(ind)  -nan(ind)  -nan(ind)
  CDT-569                 1.00   -nan(ind)  -nan(ind)  -nan(ind)  -nan(ind)  -nan(ind)  -nan(ind)  -nan(ind)  -nan(ind)  -nan(ind)
  CDT-571                 1.00   -nan(ind)  -nan(ind)  -nan(ind)  -nan(ind)  -nan(ind)  -nan(ind)  -nan(ind)  -nan(ind)  -nan(ind)
  CDT-573                 1.00   -nan(ind)  -nan(ind)  -nan(ind)  -nan(ind)  -nan(ind)  -nan(ind)  -nan(ind)  -nan(ind)  -nan(ind)
  CDT-575                 1.00   -nan(ind)  -nan(ind)  -nan(ind)  -nan(ind)  -nan(ind)  -nan(ind)  -nan(ind)  -nan(ind)  -nan(ind)
  CDT-595                 1.00   -nan(ind)  -nan(ind)  -nan(ind)  -nan(ind)  -nan(ind)  -nan(ind)  -nan(ind)  -nan(ind)  -nan(ind)
  CDT-599                 1.00   -nan(ind)  -nan(ind)  -nan(ind)  -nan(ind)  -nan(ind)  -nan(ind)  -nan(ind)  -nan(ind)  -nan(ind)
  CDT-601                 1.00   -nan(ind)  -nan(ind)  -nan(ind)  -nan(ind)  -nan(ind)  -nan(ind)  -nan(ind)  -nan(ind)  -nan(ind)
  CDT-603                 2.90   -nan(ind)  -nan(ind)  -nan(ind)  -nan(ind)  -nan(ind)  -nan(ind)  -nan(ind)  -nan(ind)  -nan(ind)
  CDT-605                 1.00   -nan(ind)  -nan(ind)  -nan(ind)  -nan(ind)  -nan(ind)  -nan(ind)  -nan(ind)  -nan(ind)  -nan(ind)
  CDT-63                  1.00   -nan(ind)  -nan(ind)  -nan(ind)  -nan(ind)  -nan(ind)  -nan(ind)  -nan(ind)  -nan(ind)  -nan(ind)
  CDT-73                 28.49   -nan(ind)  -nan(ind)  -nan(ind)  -nan(ind)  -nan(ind)  -nan(ind)  -nan(ind)  -nan(ind)  -nan(ind)
  CDT-81                  1.00   -nan(ind)  -nan(ind)  -nan(ind)  -nan(ind)  -nan(ind)  -nan(ind)  -nan(ind)  -nan(ind)  -nan(ind)
  CDT-83                  1.00   -nan(ind)  -nan(ind)  -nan(ind)  -nan(ind)  -nan(ind)  -nan(ind)  -nan(ind)  -nan(ind)  -nan(ind)
  CDT-85                  1.00   -nan(ind)  -nan(ind)  -nan(ind)  -nan(ind)  -nan(ind)  -nan(ind)  -nan(ind)  -nan(ind)  -nan(ind)
  CDT-89                  1.00   -nan(ind)  -nan(ind)  -nan(ind)  -nan(ind)  -nan(ind)  -nan(ind)  -nan(ind)  -nan(ind)  -nan(ind)
  CDT-93                  1.00   -nan(ind)  -nan(ind)  -nan(ind)  -nan(ind)  -nan(ind)  -nan(ind)  -nan(ind)  -nan(ind)  -nan(ind)
  CDT-97                  1.00   -nan(ind)  -nan(ind)  -nan(ind)  -nan(ind)  -nan(ind)  -nan(ind)  -nan(ind)  -nan(ind)  -nan(ind)
  CDT-99                  1.00   -nan(ind)  -nan(ind)  -nan(ind)  -nan(ind)  -nan(ind)  -nan(ind)  -nan(ind)  -nan(ind)  -nan(ind)
  JCT-16-06-001           1.31   -nan(ind)  -nan(ind)  -nan(ind)  -nan(ind)  -nan(ind)  -nan(ind)  -nan(ind)  -nan(ind)  -nan(ind)
  
  
  *************************
  Conduit Surcharge Summary
  *************************
  
  No conduits were surcharged.
  
  
  ***************
  Pumping Summary
  ***************
  
  ---------------------------------------------------------------------------------------------------------
                                                  Min       Avg       Max     Total     Power    % Time Off
                        Percent   Number of      Flow      Flow      Flow    Volume     Usage    Pump Curve
  Pump                 Utilized   Start-Ups       MGD       MGD       MGD  10^6 gal     Kw-hr    Low   High
  ---------------------------------------------------------------------------------------------------------
  3RDAVE_PUMP          -nan(ind)           0      0.00      0.00      0.00     0.000      0.00    0.0    0.0
  AIRPORT_PUMP         -nan(ind)           0      0.00      0.00      0.00     0.000      0.00    0.0    0.0
  HARPER_PUMP          -nan(ind)           0      0.00      0.00      0.00     0.000      0.00    0.0    0.0
  HIGHWAY_169_PUMP     -nan(ind)           0      0.00      0.00      0.00     0.000      0.00    0.0    0.0
  LUNDIN_PUMP          -nan(ind)           0      0.00      0.00      0.00     0.000      0.00    0.0    0.0
  MADISON_LAKE_PUMP    -nan(ind)           0      0.00      0.00      0.00     0.000      0.00    0.0    0.0
  MOHR_DR_PUMP         -nan(ind)           0      0.00      0.00      0.00     0.000      0.00    0.0    0.0
  MONKS_PUMP           -nan(ind)           0      0.00      0.00      0.00     0.000      0.00    0.0    0.0
  MULBERRY_PUMP        -nan(ind)           0      0.00      0.00      0.00     0.000      0.00    0.0    0.0
  NORTHSIDE_PUMP       -nan(ind)           0      0.00      0.00      0.00     0.000      0.00    0.0    0.0
  POHL_CREEK_PUMP      -nan(ind)           0      0.00      0.00      0.00     0.000      0.00    0.0    0.0
  PUMP-11              -nan(ind)           0      0.00      0.00      0.00     0.000      0.00    0.0    0.0
  PUMP-13              -nan(ind)           0      0.00      0.00      0.00     0.000      0.00    0.0    0.0
  PUMP-15              -nan(ind)           0      0.00      0.00      0.00     0.000      0.00    0.0    0.0
  PUMP-21              -nan(ind)           0      0.00      0.00      0.00     0.000      0.00    0.0    0.0
  STOLTZMAN_PUMP       -nan(ind)           0      0.00      0.00      0.00     0.000      0.00    0.0    0.0
  TELEMARK_PUMP        -nan(ind)           0      0.00      0.00      0.00     0.000      0.00    0.0    0.0
  

  Analysis begun on:  Sat Nov 30 08:10:24 2019
  Analysis ended on:  Sat Nov 30 08:10:24 2019
  Total elapsed time: < 1 sec