
  EPA STORM WATER MANAGEMENT MODEL - VERSION 5.1 (Build 5.1.013)
  --------------------------------------------------------------

  WARNING 03: negative offset ignored for Link 02-005-02-006
  WARNING 04: minimum elevation drop used for Conduit 02-008-02-008A
  WARNING 03: negative offset ignored for Link 03-007-03-006
  WARNING 03: negative offset ignored for Link 03-013-03-008
  WARNING 03: negative offset ignored for Link 04-045A-04-027
  WARNING 03: negative offset ignored for Link 06-003-06-001A
  WARNING 03: negative offset ignored for Link 07-007A-07-007
  WARNING 03: negative offset ignored for Link 08-066-08-094
  WARNING 03: negative offset ignored for Link 08-070-08-069
  WARNING 03: negative offset ignored for Link 09-039-09-038
  WARNING 04: minimum elevation drop used for Conduit 09-039-09-038
  WARNING 03: negative offset ignored for Link 09-094-09-093
  WARNING 03: negative offset ignored for Link 10-019-10-018
  WARNING 04: minimum elevation drop used for Conduit 10-047-10-108
  WARNING 03: negative offset ignored for Link 10-056-10-055
  WARNING 03: negative offset ignored for Link 10-101-07-042
  WARNING 03: negative offset ignored for Link 11-038-11-032
  WARNING 03: negative offset ignored for Link 11-039-11-038
  WARNING 04: minimum elevation drop used for Conduit 12-003-12-002
  WARNING 03: negative offset ignored for Link 14-001-13-058
  WARNING 03: negative offset ignored for Link 15-113-15-112
  WARNING 03: negative offset ignored for Link 15-137-15-115
  WARNING 03: negative offset ignored for Link 20-001-18-025
  WARNING 03: negative offset ignored for Link 20-028-20-090
  WARNING 03: negative offset ignored for Link 20-033A-20-033
  WARNING 03: negative offset ignored for Link 20-326-20-303
  WARNING 03: negative offset ignored for Link 20-349XX-20-349
  WARNING 03: negative offset ignored for Link 20-355-20-354
  WARNING 03: negative offset ignored for Link 20-357-20-356
  WARNING 03: negative offset ignored for Link 20-362-20-360
  WARNING 03: negative offset ignored for Link 23-014X-23-014
  WARNING 03: negative offset ignored for Link 24-002-24-001
  WARNING 03: negative offset ignored for Link 24-004-24-003
  WARNING 03: negative offset ignored for Link 24-009-24-005
  WARNING 03: negative offset ignored for Link 24-023-24-022
  WARNING 03: negative offset ignored for Link 25-001-09-050
  WARNING 03: negative offset ignored for Link 26-137-26-001
  WARNING 03: negative offset ignored for Link 29-009A-29-009
  WARNING 03: negative offset ignored for Link 30-026-28-144
  WARNING 04: minimum elevation drop used for Conduit 30-026-28-144
  WARNING 03: negative offset ignored for Link 32-051X-32-051
  WARNING 03: negative offset ignored for Link 32-060A-32-060
  WARNING 03: negative offset ignored for Link 33-075-33-012
  WARNING 03: negative offset ignored for Link CDT-105
  WARNING 03: negative offset ignored for Link CDT-255
  WARNING 03: negative offset ignored for Link CDT-271
  WARNING 03: negative offset ignored for Link CDT-315
  WARNING 03: negative offset ignored for Link CDT-33
  WARNING 03: negative offset ignored for Link CDT-349
  WARNING 03: negative offset ignored for Link CDT-393
  WARNING 03: negative offset ignored for Link CDT-417
  WARNING 03: negative offset ignored for Link CDT-419
  WARNING 03: negative offset ignored for Link CDT-425
  WARNING 03: negative offset ignored for Link CDT-43
  WARNING 03: negative offset ignored for Link CDT-459
  WARNING 03: negative offset ignored for Link CDT-47
  WARNING 03: negative offset ignored for Link CDT-93
  WARNING 03: negative offset ignored for Link CDT-99
  WARNING 02: maximum depth increased for Node 03-007
  WARNING 02: maximum depth increased for Node 03-008
  
  *********************************************************
  NOTE: The summary statistics displayed in this report are
  based on results found at every computational time step,  
  not just on results from each reporting time step.
  *********************************************************
  
  ****************
  Analysis Options
  ****************
  Flow Units ............... MGD
  Process Models:
    Rainfall/Runoff ........ NO
    RDII ................... NO
    Snowmelt ............... NO
    Groundwater ............ NO
    Flow Routing ........... YES
    Ponding Allowed ........ NO
    Water Quality .......... NO
  Flow Routing Method ...... DYNWAVE
  Surcharge Method ......... EXTRAN
  Starting Date ............ 07/17/2017 00:00:00
  Ending Date .............. 07/22/2017 23:00:00
  Antecedent Dry Days ...... 5.0
  Report Time Step ......... 00:05:00
  Routing Time Step ........ 30.00 sec
  Variable Time Step ....... YES
  Maximum Trials ........... 4
  Number of Threads ........ 1
  Head Tolerance ........... 0.005000 ft
  
  
  **************************        Volume        Volume
  Flow Routing Continuity        acre-feet      10^6 gal
  **************************     ---------     ---------
  Dry Weather Inflow .......      8929.523      2909.818
  Wet Weather Inflow .......         0.000         0.000
  Groundwater Inflow .......         0.000         0.000
  RDII Inflow ..............         0.000         0.000
  External Inflow ..........        30.522         9.946
  External Outflow .........      1438.712       468.826
  Flooding Loss ............      7477.278      2436.583
  Evaporation Loss .........         0.000         0.000
  Exfiltration Loss ........         0.000         0.000
  Initial Stored Volume ....         0.000         0.000
  Final Stored Volume ......        31.045        10.117
  Continuity Error (%) .....         0.145
  
  
  *************************
  Highest Continuity Errors
  *************************
  Node JCT-60 (83.54%)
  Node JCT-74 (64.58%)
  Node JCT-484 (52.02%)
  Node JCT-338 (49.67%)
  Node JCT-482 (35.48%)
  
  
  ***************************
  Time-Step Critical Elements
  ***************************
  Link 20-185B-20-185AMONKSAV (55.58%)
  Link 10-108-10-107 (18.13%)
  Link 03-090-03-089 (17.85%)
  Link 20-369-20-368 (2.13%)
  Link 20-370-20-369 (1.31%)
  
  
  ********************************
  Highest Flow Instability Indexes
  ********************************
  Link 08-091A-08-090 (146)
  Link 32-051X-32-051 (145)
  Link 10-113-10-111 (144)
  Link 10-111-10-110 (142)
  Link 20-303-20-302 (142)
  
  
  *************************
  Routing Time Step Summary
  *************************
  Minimum Time Step           :     0.17 sec
  Average Time Step           :     2.51 sec
  Maximum Time Step           :    30.00 sec
  Percent in Steady State     :     0.00
  Average Iterations per Step :     4.00
  Percent Not Converging      :   100.00
  
  
  ******************
  Node Depth Summary
  ******************
  
  ---------------------------------------------------------------------------------
                                 Average  Maximum  Maximum  Time of Max    Reported
                                   Depth    Depth      HGL   Occurrence   Max Depth
  Node                 Type         Feet     Feet     Feet  days hr:min        Feet
  ---------------------------------------------------------------------------------
  01-059               JUNCTION     0.23    22.70   771.25     0  00:00        0.38
  01-060               JUNCTION     0.52     6.17   755.17     0  00:00        0.89
  01-061               JUNCTION     0.59     6.54   756.45     0  00:00        0.98
  01-062               JUNCTION     0.16    18.40   772.55     0  00:00        0.21
  01-063               JUNCTION     0.64    22.10   776.78     0  00:00        1.31
  01-064               JUNCTION     0.51     5.52   761.14     0  00:00        0.83
  01-065               JUNCTION     0.74     2.60   758.39     0  00:00        1.07
  01-066               JUNCTION     0.66     1.35   757.48     0  00:02        0.91
  01-067               JUNCTION     0.22     0.66   757.23     0  00:05        0.66
  01-068               JUNCTION     0.08     0.37   757.12     0  00:07        0.33
  01-069               JUNCTION     0.01     0.07   757.03     0  00:13        0.06
  01-070               JUNCTION     0.00     0.00   757.44     0  00:00        0.00
  01-071               JUNCTION     0.00     0.00   758.04     0  00:00        0.00
  01-072               JUNCTION     0.00     0.00   758.70     0  00:00        0.00
  01-073               JUNCTION     0.00     0.00   758.87     0  00:00        0.00
  01-074               JUNCTION     0.00     0.00   759.25     0  00:00        0.00
  01-075               JUNCTION     0.00     0.00   759.72     0  00:00        0.00
  01-076               JUNCTION     0.00     0.00   760.14     0  00:00        0.00
  01-077               JUNCTION     0.00     0.00   761.77     0  00:00        0.00
  02-001               JUNCTION     0.66     1.13   760.52     0  07:08        1.13
  02-002               JUNCTION     1.37     4.17   763.87     0  00:02        2.87
  02-003               JUNCTION     0.75     1.46   763.06     0  00:01        1.41
  02-004               JUNCTION     0.84     2.08   764.81     0  00:01        1.70
  02-005               JUNCTION     1.76     4.55   767.55     1  06:02        4.01
  02-006               JUNCTION     3.87     6.53   764.67     0  07:00        6.03
  02-007               JUNCTION     3.32     5.68   763.17     5  07:00        5.28
  02-007A              JUNCTION     3.29     5.16   760.95     3  07:07        5.14
  02-008               JUNCTION     0.72     5.54   769.27     0  00:00        1.35
  02-008A              JUNCTION     0.71     2.12   765.85     0  00:01        1.35
  02-011               JUNCTION     1.74    11.40   780.67     0  00:00        2.06
  02-026               JUNCTION     1.20    10.82   785.46     0  00:00        1.48
  02-027               JUNCTION     0.91     1.08   796.06     5  07:56        1.08
  02-028               JUNCTION     1.10     1.62   799.91     0  00:00        1.34
  02-034               JUNCTION     0.96     1.11   804.23     5  07:55        1.11
  02-035               JUNCTION     1.49     1.76   807.66     5  07:55        1.76
  02-040               JUNCTION     4.91     8.17   816.42     5  07:00        7.32
  02-041               JUNCTION     2.87     6.61   816.95     4  07:00        5.36
  02-080               JUNCTION     0.79     2.15   765.63     0  00:01        1.55
  03-001               JUNCTION    10.43    21.40   831.05     0  00:00       13.18
  03-002               JUNCTION    16.27    19.06   829.48     0  07:00       18.08
  03-002A              JUNCTION     1.62     4.53   829.71     0  07:00        3.34
  03-003               JUNCTION     1.26     4.26   829.80     0  07:00        2.97
  03-004               JUNCTION    18.50    20.20   831.13     0  00:00       19.27
  03-006               JUNCTION    17.59    17.92   829.02     0  17:18       17.92
  03-007               JUNCTION    14.68    15.44   827.06     3  09:57       15.44
  03-008               JUNCTION    14.15    14.91   827.06     3  09:58       14.91
  03-013               JUNCTION    11.71    12.00   824.72     0  11:37       12.00
  03-014               JUNCTION    11.60    12.08   825.20     4  07:00       11.79
  03-015               JUNCTION    11.28    11.73   825.19     3  07:00       11.48
  03-016               JUNCTION    11.07    11.70   825.64     1  07:00       11.31
  03-018               JUNCTION    10.99    11.20   825.96     0  00:09       11.20
  03-019               JUNCTION    10.75    10.80   826.04     0  00:03       10.80
  03-020               JUNCTION    10.32    10.60   826.45     0  00:03       10.60
  03-021               JUNCTION     9.67    13.93   830.43     0  00:03       10.08
  03-022               JUNCTION     9.17    10.01   826.93     5  07:00        9.38
  03-023               JUNCTION     8.80     8.80   826.03     0  00:03        8.80
  03-024               JUNCTION     8.34     9.95   827.80     4  07:00        8.76
  03-025               JUNCTION     7.82     8.60   826.98     0  00:00        8.15
  03-026               JUNCTION     7.10     7.10   826.01     0  00:00        7.10
  03-027               JUNCTION     8.60     9.50   828.95     0  00:00        8.88
  03-028               JUNCTION     8.59     8.60   828.59     0  00:00        8.60
  03-031               JUNCTION     8.74     8.75   829.03     0  00:03        8.75
  03-035               JUNCTION    10.29    10.30   825.04     0  00:09       10.30
  03-036               JUNCTION    10.33    10.70   825.86     0  05:00       10.52
  03-037               JUNCTION    10.07    10.48   826.06     0  00:10       10.22
  03-038               JUNCTION     9.76    10.10   826.16     0  00:10        9.83
  03-039               JUNCTION     9.59     9.60   825.95     0  00:10        9.60
  03-040               JUNCTION     9.49     9.50   825.97     0  00:10        9.50
  03-041               JUNCTION     8.79     8.80   825.99     0  00:10        8.80
  03-042               JUNCTION     8.80    10.11   827.53     0  00:11        9.14
  03-043               JUNCTION     8.47    12.08   830.02     0  00:11        9.01
  03-044               JUNCTION     8.31    12.30   830.51     0  00:11        8.97
  03-045               JUNCTION     8.07    11.70   830.16     0  00:11        8.72
  03-046               JUNCTION     7.98    11.00   829.52     0  00:11        8.54
  03-047               JUNCTION     7.92    10.40   828.97     0  00:11        8.45
  03-057               JUNCTION     7.19     7.20   826.30     0  00:10        7.20
  03-060               JUNCTION    19.59    19.90   830.94     0  07:00       19.90
  03-061               JUNCTION    12.88    13.84   833.14     3  07:00       13.48
  03-062               JUNCTION    14.09    15.39   834.89     4  07:00       14.97
  03-063               JUNCTION    15.24    16.76   836.59     1  07:00       16.23
  03-065C              JUNCTION    17.39    18.30   838.80     0  07:00       18.30
  03-067               JUNCTION     6.62     6.63   826.00     0  00:10        6.63
  03-069               JUNCTION     0.00     0.00   819.20     0  00:00        0.00
  03-086               JUNCTION    13.28    14.26   836.23     0  00:05       13.33
  03-087               JUNCTION     8.08     8.22   840.74     0  00:03        8.22
  03-088               JUNCTION     3.33     7.98   852.81     0  00:10        4.48
  03-089               JUNCTION     3.32     5.96   866.17     0  05:02        4.98
  03-090               JUNCTION     4.54     7.45   868.13     0  00:00        6.30
  03-191               JUNCTION    11.38    14.31   844.00     4  07:00       12.64
  03-192               JUNCTION    11.36    15.90   846.30     3  07:00       12.67
  03-198               JUNCTION    10.89    15.31   846.29     1  07:00       12.10
  03-199               JUNCTION    10.25    11.83   843.41     0  07:00       10.82
  03-199A              JUNCTION    10.02    10.21   841.94     0  00:06       10.21
  03-200               JUNCTION    10.85    11.62   825.80     0  00:09       11.53
  03-201               JUNCTION    10.07    10.60   825.53     0  00:09       10.57
  03-202               JUNCTION     9.49     9.50   824.97     0  00:09        9.50
  03-203               JUNCTION     8.96    10.00   826.03     0  00:09        9.11
  03-210               JUNCTION     8.49     8.50   825.03     0  00:09        8.50
  03-211               JUNCTION     8.78     9.40   827.18     0  00:06        8.79
  03-212               JUNCTION     9.19     9.20   828.23     0  00:05        9.20
  03-213               JUNCTION    10.59    11.90   832.18     0  00:04       10.62
  03-214               JUNCTION    12.29    14.10   835.60     0  00:03       12.34
  03-215               JUNCTION    12.19    12.20   834.92     0  00:02       12.20
  03-216               JUNCTION    11.21    13.40   837.34     0  00:03       11.53
  03-217               JUNCTION     9.79     9.80   835.16     0  00:04        9.80
  03-218               JUNCTION     9.79     9.80   836.58     0  00:04        9.80
  03-219               JUNCTION    11.44    12.10   840.30     0  04:00       12.10
  03-220               JUNCTION    11.54    14.00   843.45     0  07:00       12.81
  03-230               JUNCTION     0.00     0.00   816.00     0  00:00        0.00
  03-252               JUNCTION     8.74     8.84   829.21     0  00:03        8.84
  03-253               JUNCTION     8.39     9.45   830.30     0  00:03        8.74
  03-254               JUNCTION     8.04    10.05   831.38     0  00:03        8.62
  03-255               JUNCTION     7.37    10.20   832.20     0  00:03        7.92
  03-261               JUNCTION     5.31     7.52   869.79     0  00:00        7.52
  03-262               JUNCTION     0.61    13.89   883.99     0  00:00        0.82
  03-263               JUNCTION     0.52     4.84   902.34     0  00:00        0.70
  03-264               JUNCTION     0.62     0.84   917.50     0  07:24        0.84
  03-265               JUNCTION     0.71     0.96   926.66     0  07:22        0.96
  03-266               JUNCTION     0.48     0.63   945.25     0  07:12        0.63
  03-287               JUNCTION     1.68    10.70   965.12     0  07:12       10.69
  03-288               JUNCTION     2.65    18.99   980.23     1  07:11       18.99
  03-289               JUNCTION     2.31    19.76   986.83     0  07:11       19.76
  03-290               JUNCTION     2.21    19.48   987.90     2  07:11       19.39
  03-291               JUNCTION     2.33    19.37   988.05     2  07:11       19.24
  03-292               JUNCTION     2.24    19.10   988.38     3  07:11       18.94
  03-293               JUNCTION     2.12    18.81   988.70     3  07:11       18.55
  03-294               JUNCTION     1.77    18.31   988.82     4  07:11       17.97
  03-295               JUNCTION     1.72    17.82   988.95     3  07:11       17.40
  03-295X              JUNCTION     1.62    17.73   988.96     3  07:11       17.29
  04-001               JUNCTION     0.41     0.54   809.74     0  07:12        0.54
  04-014               JUNCTION    16.89    16.90   843.06     0  00:06       16.90
  04-023               JUNCTION    19.31    22.27   843.48     0  00:01       20.04
  04-027               JUNCTION     9.75    11.70   850.72     0  00:06       10.14
  04-042               JUNCTION    20.43    23.00   845.26     0  00:00       20.58
  04-043               JUNCTION    19.97    21.06   842.82     0  07:00       20.46
  04-045               JUNCTION    13.29    13.57   854.86     0  05:00       13.57
  04-045A              JUNCTION    13.06    13.67   854.91     0  00:00       13.36
  05-018               JUNCTION    11.47    11.80   861.24     0  05:00       11.80
  05-034               JUNCTION    11.20    11.85   862.15     1  07:00       11.60
  05-035               JUNCTION    10.52    11.37   865.07     0  07:00       10.94
  05-036               JUNCTION    10.76    11.79   868.73     1  07:00       11.16
  06-001               JUNCTION     1.57     8.30   813.48     0  00:00        3.83
  06-001A              JUNCTION     0.68     2.17   811.76     0  07:06        1.84
  06-003               JUNCTION     0.69     9.10   819.45     0  00:00        1.69
  06-005               JUNCTION     0.50     1.25   813.02     0  00:00        0.68
  07-003               JUNCTION    16.09    16.60   796.13     0  00:00       16.46
  07-004               JUNCTION    11.10    11.10   796.29     0  00:00       11.10
  07-005               JUNCTION     7.84     8.10   800.26     0  00:01        8.10
  07-007A              JUNCTION     2.18     5.50   809.64     5  05:02        4.69
  07-039               JUNCTION    11.33    13.40   829.85     0  00:00       12.43
  07-040               JUNCTION     8.00     8.00   854.60     0  00:00        8.00
  07-042               JUNCTION     6.41     9.78   871.90     0  00:00        9.78
  07-043               JUNCTION    11.20    11.20   793.00     0  00:01       11.20
  07-080               JUNCTION    15.31    16.25   784.60     0  00:00       16.12
  08-001               JUNCTION    14.89    15.89   782.49     3  07:00       15.61
  08-002               JUNCTION    16.24    17.00   780.59     0  06:00       17.00
  08-003               JUNCTION    16.00    16.90   780.47     2  17:00       16.81
  08-003A              JUNCTION    14.58    16.25   779.62     2  17:00       15.77
  08-003B              JUNCTION    14.99    16.94   779.81     2  17:00       16.19
  08-037               JUNCTION    14.24    14.70   779.80     0  06:00       14.70
  08-038               JUNCTION    12.99    13.00   779.00     0  00:04       13.00
  08-040               JUNCTION    11.99    12.00   779.69     0  00:12       12.00
  08-041               JUNCTION    12.44    12.80   780.77     0  00:14       12.80
  08-041A              JUNCTION    12.53    13.00   780.80     0  00:00       12.86
  08-043               JUNCTION    11.32    13.00   783.19     0  00:14       12.85
  08-045               JUNCTION    10.78    13.30   784.80     0  00:14       12.98
  08-046               JUNCTION    10.84    13.70   786.27     0  00:14       13.70
  08-049               JUNCTION     9.50    16.90   791.91     0  00:14       14.31
  08-051               JUNCTION     6.38    16.00   794.42     0  00:14       11.66
  08-061               JUNCTION    13.25    14.40   818.22     0  00:00       13.52
  08-066               JUNCTION    10.10    10.10   824.17     0  00:00       10.10
  08-067               JUNCTION     6.42     6.80   825.71     0  00:01        6.65
  08-068               JUNCTION     7.81     8.40   830.87     0  00:00        8.34
  08-069               JUNCTION     7.75     7.80   838.00     0  00:00        7.80
  08-070               JUNCTION     7.30     7.30   840.36     0  00:00        7.30
  08-071               JUNCTION     7.32     8.28   842.23     0  00:00        7.53
  08-072               JUNCTION     8.99    10.59   846.09     4  07:00        9.56
  08-073               JUNCTION    10.74    11.90   850.40     0  00:00       11.26
  08-080               JUNCTION    11.64    12.50   783.50     0  00:08       12.05
  08-081               JUNCTION    12.22    12.25   783.50     0  00:13       12.25
  08-084               JUNCTION    12.88    12.90   784.40     0  00:11       12.90
  08-085               JUNCTION    12.26    12.30   786.85     0  00:01       12.30
  08-086               JUNCTION    11.96    13.00   790.35     0  00:13       12.99
  08-087               JUNCTION    11.41    13.70   793.80     0  00:11       13.12
  08-088               JUNCTION    10.21    14.90   798.10     0  00:13       12.29
  08-090               JUNCTION     9.43    14.20   799.53     0  00:15       11.65
  08-091               JUNCTION     5.50     9.40   799.16     0  00:15        7.76
  08-093               JUNCTION     8.41    11.50   810.50     0  00:01       10.31
  08-094               JUNCTION    13.30    13.30   817.82     0  00:00       13.30
  08-095               JUNCTION     6.20     6.20   818.93     0  00:00        6.20
  08-114               JUNCTION    14.68    15.68   782.68     1  07:00       15.39
  09-001               JUNCTION     3.03     4.86   760.61     0  07:08        4.85
  09-001A              JUNCTION     4.53     7.41   759.91     0  00:14        4.88
  09-002               JUNCTION     5.15     8.10   760.73     0  00:14        5.67
  09-003               JUNCTION     5.76     9.04   761.86     0  00:14        6.45
  09-004               JUNCTION     6.86    11.65   764.84     0  00:13        7.82
  09-005               JUNCTION     8.33    15.88   769.61     0  00:13        9.54
  09-005A              JUNCTION     8.13    19.65   773.58     0  00:13        9.33
  09-006               JUNCTION     9.37    17.28   771.42     0  00:13       10.75
  09-007               JUNCTION     9.87    15.50   770.00     0  00:13       11.32
  09-008               JUNCTION    11.00    15.10   769.97     0  00:13       12.57
  09-009               JUNCTION    12.22    14.60   769.99     2  17:00       13.88
  09-010               JUNCTION    13.11    20.10   776.00     0  00:00       14.84
  09-011               JUNCTION    13.37    16.92   773.16     2  17:00       15.14
  09-011A              JUNCTION    13.17    16.57   772.57     2  17:00       14.91
  09-012A              JUNCTION    13.61    17.21   773.56     2  17:00       15.39
  09-026               JUNCTION     9.33    11.46   777.68     2  17:00       10.82
  09-033               JUNCTION    20.08    23.90   772.93     1  07:07       23.79
  09-034               JUNCTION    20.12    23.94   772.94     2  07:07       23.83
  09-036               JUNCTION    19.40    26.50   776.22     0  00:15       23.11
  09-037               JUNCTION    18.95    27.60   777.77     0  00:15       23.32
  09-038               JUNCTION    18.91    27.56   777.77     0  00:15       22.59
  09-039               JUNCTION    18.90    24.85   775.06     0  00:15       22.54
  09-041               JUNCTION    18.30    24.57   775.37     0  00:15       21.90
  09-042               JUNCTION    17.77    23.80   775.04     0  00:15       21.17
  09-043               JUNCTION    17.05    20.20   772.05     0  00:15       20.20
  09-044               JUNCTION    16.34    19.50   771.87     0  00:17       19.19
  09-045               JUNCTION    15.90    19.26   771.87     0  00:18       18.39
  09-046               JUNCTION    15.52    18.88   771.71     0  00:18       17.75
  09-047               JUNCTION    15.27    18.58   771.56     0  00:18       17.32
  09-048               JUNCTION    14.80    17.70   770.90     0  00:18       16.40
  09-048A              JUNCTION    14.46    17.24   770.59     0  00:18       15.75
  09-049               JUNCTION    14.12    16.37   769.92     0  00:18       15.16
  09-050               JUNCTION    13.43    15.43   769.16     0  00:15       13.85
  09-051               JUNCTION    17.36    19.56   779.56     2  17:00       18.65
  09-088               JUNCTION    12.26    20.80   777.71     0  00:15       15.97
  09-089               JUNCTION    11.47    15.89   773.70     0  00:17       15.36
  09-093               JUNCTION     8.88    16.72   777.16     0  00:16       12.84
  09-094               JUNCTION     6.86    12.86   775.38     0  00:17       10.89
  09-096               JUNCTION     0.63     2.50   774.06     0  00:00        2.07
  09-097               JUNCTION     0.39     0.52   774.78     1  07:26        0.52
  09-098               JUNCTION     0.29     0.38   778.12     4  07:07        0.38
  09-099               JUNCTION     0.28     0.37   780.13     0  07:00        0.36
  09-121               JUNCTION    15.30    17.40   779.65     2  17:00       16.55
  09-133               JUNCTION    10.15    12.51   777.86     2  17:00       11.66
  09-135               JUNCTION    17.18    19.75   777.99     2  17:00       18.72
  09-136               JUNCTION    16.40    19.37   777.13     2  17:00       18.07
  09-138               JUNCTION    15.44    18.83   776.06     2  17:00       17.21
  09-139               JUNCTION    14.78    18.38   775.27     2  17:00       16.59
  09-140               JUNCTION    14.42    18.04   774.86     2  17:00       16.24
  09-203               JUNCTION     8.73    10.00   777.35     0  00:13       10.00
  09-204               JUNCTION     6.81     8.45   777.73     0  00:00        8.15
  09-205               JUNCTION     6.00     9.18   779.28     0  00:00        7.31
  09-206               JUNCTION    20.18    24.01   772.95     3  07:02       23.88
  10-013               JUNCTION     9.62    14.03   998.03     0  00:01       10.67
  10-014               JUNCTION    10.73    11.19   995.60     0  00:01       11.19
  10-015               JUNCTION    11.75    12.72   997.45     0  00:00       12.38
  10-018               JUNCTION    11.91    14.34   999.14     0  00:00       12.52
  10-019               JUNCTION    12.13    13.38   998.28     0  00:00       12.69
  10-022               JUNCTION    12.33    12.33   998.11     0  00:00       12.33
  10-023               JUNCTION    12.41    13.49   999.20     0  00:00       12.57
  10-047               JUNCTION     6.69    19.73   995.77     0  00:01        7.79
  10-053               JUNCTION     7.41    18.29   994.78     0  00:01        8.54
  10-055               JUNCTION     8.92     9.70   986.52     0  00:00        9.70
  10-056               JUNCTION     9.28    11.60   988.60     0  00:00       10.21
  10-057               JUNCTION    10.65    13.94   992.00     0  00:00       11.67
  10-058               JUNCTION    11.14    12.39   991.25     0  00:00       11.65
  10-061               JUNCTION    10.57    10.60   990.80     0  00:00       10.60
  10-062               JUNCTION    10.81    11.80   992.48     0  00:00       11.32
  10-101               JUNCTION     6.95    11.53   876.02     0  00:00       11.53
  10-102               JUNCTION     1.01    11.67   888.43     0  00:00        1.15
  10-103               JUNCTION     0.96    12.06   921.38     0  00:00        1.08
  10-104               JUNCTION     2.48     6.19   924.43     0  00:00        4.50
  10-105               JUNCTION     0.99     2.74   953.69     0  00:00        1.10
  10-107               JUNCTION     0.94     1.04   976.66     5  07:00        1.04
  10-108               JUNCTION     2.61     7.11   983.15     0  00:00        2.95
  10-109               JUNCTION     0.91     0.99   984.31     3  07:00        0.98
  10-110               JUNCTION     4.90    13.66   997.34     0  00:01        5.74
  10-111               JUNCTION     7.48    10.00   993.69     4  07:00        8.74
  10-113               JUNCTION     8.16    10.79   994.57     3  07:00        9.47
  10-114               JUNCTION     8.95    11.45   995.34     4  07:00       10.17
  10-115               JUNCTION    12.31    13.82   998.85     0  00:00       12.79
  10-117               JUNCTION    12.37    13.94   999.05     0  00:00       12.82
  10-118               JUNCTION    12.39    13.03   998.31     0  00:00       12.65
  10-119               JUNCTION    12.33    12.36   997.89     0  00:00       12.36
  11-001               JUNCTION    12.44    13.53   999.64     0  00:00       12.72
  11-007               JUNCTION    12.36    14.00  1001.30     0  00:00       12.75
  11-023               JUNCTION    12.94    13.20  1000.70     0  00:00       13.15
  11-023A              JUNCTION    12.72    12.74  1000.72     0  00:00       12.74
  11-031               JUNCTION    12.97    13.87  1002.39     0  00:00       13.22
  11-032               JUNCTION    12.68    13.13  1002.18     0  00:00       12.79
  11-038               JUNCTION    12.44    12.45  1001.77     0  00:00       12.45
  11-039               JUNCTION    11.89    13.70  1003.77     0  00:00       12.35
  12-001               JUNCTION    11.05    14.27   997.28     3  07:00       12.22
  12-002               JUNCTION    11.57    13.53   997.47     0  05:00       12.50
  12-003               JUNCTION    12.31    13.50   997.44     0  00:00       12.85
  12-004               JUNCTION    12.13    12.40   996.66     0  00:00       12.40
  12-008               JUNCTION    12.07    12.40   996.97     0  00:00       12.40
  12-009               JUNCTION    10.42    11.30   997.72     0  00:00       11.11
  12-046               JUNCTION     9.46    10.44   993.00     0  00:00       10.21
  13-001               JUNCTION     7.29     9.80   927.30     0  07:00        9.35
  13-002               JUNCTION     7.96     9.80   928.33     0  06:00        9.80
  13-003               JUNCTION     9.01    10.20   930.97     0  00:01       10.20
  13-004               JUNCTION     9.09    10.40   932.90     0  00:01       10.01
  13-015               JUNCTION    10.40    10.40   934.42     0  00:00       10.40
  13-016               JUNCTION    10.94    11.10   937.69     0  00:06       11.10
  13-017               JUNCTION    11.60    11.60   939.84     0  00:06       11.60
  13-018               JUNCTION    10.10    10.20   943.05     0  00:06       10.20
  13-019               JUNCTION     7.70     8.20   947.70     0  00:05        7.95
  13-022               JUNCTION     8.35     8.40   948.89     0  00:06        8.40
  13-023               JUNCTION     8.19     8.20   951.20     0  00:00        8.20
  13-024               JUNCTION    12.79    12.80   958.82     0  00:05       12.80
  13-037               JUNCTION    15.45    18.00   965.54     0  00:06       15.84
  13-039               JUNCTION    18.92    22.80   970.90     0  00:06       19.35
  13-040               JUNCTION    12.91    13.00   968.00     0  00:06       13.00
  13-041               JUNCTION     9.50    10.50   970.47     0  00:06       10.09
  13-042               JUNCTION     9.94    12.40   974.98     0  00:06       10.89
  13-056               JUNCTION     7.20    14.93   996.00     0  00:01       10.25
  13-057               JUNCTION    10.37    18.24   999.97     0  00:00       13.95
  13-058               JUNCTION    11.27    20.05  1002.31     0  00:00       14.66
  13-059               JUNCTION     6.69     6.70   979.20     0  00:13        6.70
  13-060               JUNCTION     9.75    12.14   986.29     3  07:00       11.34
  14-001               JUNCTION    12.31    19.80  1002.55     0  00:00       15.50
  14-002               JUNCTION    14.00    18.40  1001.30     0  00:00       16.36
  14-009               JUNCTION    15.25    16.50  1000.00     0  00:00       16.08
  14-016               JUNCTION    15.57    15.80   999.55     0  00:00       15.80
  14-017               JUNCTION    15.56    16.70  1000.99     0  00:00       15.96
  14-027               JUNCTION    15.43    16.50  1001.05     0  00:00       15.75
  14-028               JUNCTION    15.00    15.00  1000.00     0  00:00       15.00
  14-031               JUNCTION    14.19    14.50  1001.05     0  00:00       14.46
  14-035               JUNCTION    13.90    14.10  1001.02     0  00:00       14.10
  14-036               JUNCTION    13.29    13.50  1001.02     0  00:00       13.50
  14-037               JUNCTION    12.50    12.50  1000.52     0  00:00       12.50
  14-038               JUNCTION    12.01    12.50  1001.00     0  00:00       12.40
  14-039               JUNCTION    10.58    11.40  1001.00     0  00:00       11.29
  14-040               JUNCTION     9.78    10.60  1000.47     0  00:00       10.52
  14-041               JUNCTION     7.70     7.70   997.97     0  00:00        7.70
  14-043               JUNCTION     7.03     8.30   999.03     0  00:00        7.34
  14-045               JUNCTION     6.00     6.00   997.00     0  00:00        6.00
  14-080               JUNCTION    12.50    12.50  1001.01     0  00:00       12.50
  14-081               JUNCTION    12.73    13.00  1002.01     0  00:00       13.00
  14-082               JUNCTION    11.85    16.00  1006.00     0  00:00       12.75
  14-091               JUNCTION     5.59     8.09   999.59     0  00:00        6.09
  15-001               JUNCTION    19.33    22.06   970.46     0  00:06       19.96
  15-011               JUNCTION    19.80    24.52   973.25     0  00:04       20.55
  15-066               JUNCTION    20.47    24.40   973.74     0  00:06       21.20
  15-067               JUNCTION    21.08    23.58   973.38     4  07:00       21.81
  15-084               JUNCTION    27.88    30.88   999.42     5  07:00       29.37
  15-097               JUNCTION    27.99    30.16   999.00     0  07:00       29.20
  15-098               JUNCTION    27.64    28.59   998.00     0  05:00       28.59
  15-099               JUNCTION    25.59    26.69   996.50     0  07:00       26.37
  15-100               JUNCTION    22.25    22.26   992.60     0  00:04       22.26
  15-101               JUNCTION    13.06    15.25   994.83     0  00:04       13.31
  15-107               JUNCTION    27.84    28.95   998.54     0  07:00       28.72
  15-108               JUNCTION    29.59    29.93   999.17     0  04:00       29.93
  15-109               JUNCTION    30.82    32.02  1002.47     0  06:00       31.96
  15-110               JUNCTION    31.90    34.52  1005.38     2  07:00       33.25
  15-111               JUNCTION    32.31    35.38  1006.54     5  07:00       33.61
  15-112               JUNCTION    32.29    35.38  1006.87     3  07:00       33.48
  15-113               JUNCTION    32.32    35.11  1006.91     3  07:00       33.28
  15-114               JUNCTION    32.31    34.47  1006.48     4  07:00       33.09
  15-115               JUNCTION    32.19    34.05  1006.20     3  07:00       32.95
  15-137               JUNCTION    31.95    32.45  1004.89     0  00:00       32.45
  15-138               JUNCTION    32.03    32.43  1004.94     0  00:00       32.43
  15-139               JUNCTION    31.38    32.98  1006.30     0  00:00       31.95
  15-140               JUNCTION    30.52    32.61  1006.83     0  00:00       31.06
  15-142               JUNCTION    29.89    30.03  1004.76     0  00:06       30.03
  15-143               JUNCTION    29.34    30.96  1006.32     0  00:06       29.67
  15-145               JUNCTION    29.05    29.35  1004.99     0  00:06       29.35
  16-001               JUNCTION    11.69    11.70   852.70     0  00:00       11.70
  16-002               JUNCTION    10.69    10.70   855.85     0  00:06       10.70
  16-003               JUNCTION    11.49    11.50   860.40     0  00:06       11.50
  16-004               JUNCTION    11.81    14.60   874.16     0  00:06       13.36
  16-005               JUNCTION     4.38     9.41   884.41     0  07:04        7.04
  16-006               JUNCTION     1.23     6.88   892.20     0  07:04        3.26
  16-007               JUNCTION     7.73     9.40   900.40     0  00:03        7.91
  16-008               JUNCTION    11.09    11.20   908.70     0  00:06       11.20
  16-009               JUNCTION     9.32    10.92   916.92     4  07:00       10.39
  16-010               JUNCTION     5.83     8.68   924.76     3  07:00        7.84
  18-001               JUNCTION     0.91     9.70   831.16     0  00:00        0.91
  18-002               JUNCTION     4.41     5.64   835.64     0  00:24        4.43
  18-003               JUNCTION     5.90     6.74   842.24     0  00:24        5.93
  18-004               JUNCTION     8.37     8.40   851.43     0  00:24        8.40
  18-005               JUNCTION     7.57     8.00   872.58     0  00:24        8.00
  18-006               JUNCTION     7.53     8.86   874.23     0  00:24        8.04
  18-007               JUNCTION     8.17     8.20   882.20     0  00:24        8.20
  18-008               JUNCTION     6.20     8.00   894.00     0  06:00        8.00
  18-008A              JUNCTION     4.75     9.18   909.09     3  07:00        8.66
  18-009               JUNCTION     6.61    10.90   915.92     0  06:00       10.90
  18-010               JUNCTION     5.16    10.60   926.64     0  06:00       10.60
  18-011               JUNCTION     7.00    14.77   938.01     3  08:02       13.63
  18-011A              JUNCTION     3.86    11.89   942.53     3  08:02       10.50
  18-012               JUNCTION     2.49    10.02   948.74     3  08:02        8.38
  18-013               JUNCTION     1.41     7.89   964.21     3  08:02        3.82
  18-014               JUNCTION     4.73     7.75   971.43     3  08:02        6.54
  18-015               JUNCTION     4.89     8.60   974.36     2  17:00        7.11
  18-016               JUNCTION    11.71    17.98   986.15     2  17:00       15.64
  18-017               JUNCTION    14.87    22.41   992.41     2  17:00       19.73
  18-018               JUNCTION    16.67    24.61   994.74     2  17:00       21.72
  18-019               JUNCTION    17.50    25.83   996.13     2  17:00       22.55
  18-020               JUNCTION    18.33    27.05   997.58     2  17:00       23.33
  18-021               JUNCTION    18.48    27.15   997.78     2  17:00       23.42
  18-022               JUNCTION    18.72    27.02   997.77     2  17:00       23.54
  18-023               JUNCTION    19.04    26.48   997.39     2  17:00       23.62
  18-024               JUNCTION    19.26    25.79   996.89     2  17:00       23.61
  18-025               JUNCTION    19.31    25.14   996.41     2  17:00       23.49
  20-001               JUNCTION    19.42    23.50   995.02     0  06:00       23.29
  20-002               JUNCTION    19.49    23.10   994.80     0  05:00       23.10
  20-003               JUNCTION    19.50    24.40   996.31     2  17:00       22.91
  20-004               JUNCTION    19.47    25.04   997.15     2  17:00       22.71
  20-023               JUNCTION    19.40    25.58   997.88     2  17:00       22.47
  20-024               JUNCTION    19.33    25.63   998.13     2  17:00       22.25
  20-025               JUNCTION    19.25    25.57   998.27     2  17:00       22.01
  20-026               JUNCTION    19.18    25.16   998.06     2  17:00       21.76
  20-027               JUNCTION    18.99    24.32   997.51     2  17:00       21.37
  20-028               JUNCTION    18.33    22.30   996.19     2  17:00       20.32
  20-028A              JUNCTION    18.61    21.44   995.03     2  17:00       20.24
  20-029               JUNCTION    18.51    20.78   994.45     2  17:00       19.92
  20-030               JUNCTION    18.16    18.60   992.51     0  00:21       18.60
  20-031               JUNCTION    18.11    19.57   993.57     5  07:00       18.72
  20-032               JUNCTION    17.61    19.53   993.92     5  07:00       18.27
  20-032A              JUNCTION    17.89    19.68   993.88     4  07:00       18.54
  20-033               JUNCTION    17.11    19.14   993.77     1  07:00       17.76
  20-033A              JUNCTION    17.10    19.03   993.49     2  07:00       17.71
  20-034               JUNCTION    16.88    18.68   993.20     1  07:00       17.48
  20-035               JUNCTION    15.96    17.38   992.49     4  07:00       16.49
  20-036               JUNCTION    15.28    16.41   991.76     1  07:00       15.68
  20-037               JUNCTION    14.37    14.40   990.03     0  00:13       14.40
  20-046               JUNCTION    17.96    19.64   993.79     1  07:00       18.61
  20-047               JUNCTION    17.46    19.20   995.78     0  05:00       18.51
  20-048               JUNCTION    17.92    19.80   997.05     0  05:00       18.77
  20-049               JUNCTION    17.77    18.90   996.82     0  05:00       18.24
  20-050               JUNCTION    17.29    17.90   996.49     0  00:01       17.47
  20-050A              JUNCTION    16.99    17.00   996.00     0  00:15       17.00
  20-051               JUNCTION    17.45    18.01   997.11     5  07:00       17.71
  20-052               JUNCTION    16.53    17.00   997.35     0  05:00       16.88
  20-053               JUNCTION    16.11    16.20   997.24     0  00:01       16.20
  20-054               JUNCTION    15.69    15.70   997.20     0  00:00       15.70
  20-055               JUNCTION    16.71    20.70  1002.42     0  00:00       18.89
  20-058               JUNCTION    16.70    22.00  1004.00     0  00:00       19.36
  20-059               JUNCTION    16.44    26.50  1009.00     0  00:00       19.50
  20-071               JUNCTION    13.71    16.50   992.83     0  00:15       14.01
  20-072               JUNCTION    13.36    19.20   995.90     0  00:15       13.80
  20-073               JUNCTION    12.98    17.50   994.58     0  00:15       13.49
  20-074               JUNCTION    12.64    14.60   992.01     0  00:16       13.12
  20-090               JUNCTION    18.80    23.91   997.31     2  17:00       21.12
  20-110               JUNCTION    18.12    18.78   992.74     0  07:00       18.61
  20-120               JUNCTION    17.59    18.36   997.56     4  07:00       17.94
  20-159               JUNCTION    21.22    23.67   973.80     5  07:00       21.88
  20-159A              JUNCTION    21.54    23.80   974.10     2  07:00       22.13
  20-160               JUNCTION    21.52    23.47   974.03     5  07:00       22.02
  20-161               JUNCTION    21.51    23.10   974.02     0  00:06       21.87
  20-184               JUNCTION     9.77    10.85   990.60     0  00:16       10.09
  20-185               JUNCTION     8.72     8.74   989.00     0  00:17        8.74
  20-185B              JUNCTION     1.59     2.33   951.27     0  07:00        1.97
  20-229               JUNCTION     0.00     0.00   956.36     0  00:00        0.00
  20-299               JUNCTION    21.24    22.23   973.70     0  00:06       21.42
  20-300               JUNCTION    21.10    21.11   972.98     0  00:06       21.11
  20-301               JUNCTION    22.07    22.95   975.27     4  07:00       22.31
  20-302               JUNCTION    23.05    23.76   976.60     0  07:00       23.30
  20-303               JUNCTION    22.73    22.85   976.53     0  04:00       22.85
  20-326               JUNCTION    23.95    25.59   979.59     5  07:00       24.67
  20-327               JUNCTION    24.64    27.13   981.75     1  07:00       25.73
  20-328               JUNCTION    24.83    31.74   986.83     0  00:00       25.99
  20-329               JUNCTION    25.36    30.15   985.86     0  00:00       26.66
  20-330               JUNCTION    25.69    32.32   988.55     0  00:00       27.09
  20-332               JUNCTION    25.92    29.02   985.87     1  07:00       27.29
  20-333               JUNCTION    25.91    28.99   986.32     3  07:00       27.18
  20-349               JUNCTION    25.69    35.52   993.09     0  00:00       26.99
  20-349XX             JUNCTION    25.66    29.23   986.82     5  07:00       26.95
  20-350               JUNCTION    20.00    21.61   985.70     0  07:00       20.68
  20-351               JUNCTION    20.25    20.26   984.82     0  00:04       20.26
  20-352               JUNCTION    21.43    22.10   987.08     3  07:00       21.62
  20-354               JUNCTION    21.92    21.93   987.35     0  00:04       21.93
  20-355               JUNCTION    24.79    26.37   992.32     0  06:00       26.08
  20-356               JUNCTION    25.90    28.35   994.83     0  07:00       27.52
  20-357               JUNCTION    26.39    29.03   995.70     5  07:00       28.03
  20-358               JUNCTION    26.92    28.25   995.42     0  00:03       28.25
  20-359               JUNCTION    27.13    29.46   997.08     2  07:00       28.62
  20-360               JUNCTION    27.23    30.09   998.04     5  07:00       28.81
  20-362               JUNCTION    27.66    30.85   999.05     4  07:00       29.14
  20-368               JUNCTION     1.91     3.57   952.68     3  07:00        3.04
  20-369               JUNCTION     2.23     5.47   954.92     0  00:00        4.38
  20-370               JUNCTION     2.30     6.99   956.74     0  00:00        5.04
  20-371               JUNCTION     2.36     9.55   959.75     0  00:00        5.81
  20-372               JUNCTION     2.26     8.54   959.22     0  00:00        6.16
  20-444               JUNCTION     2.11     7.95   958.86     2  07:00        6.06
  20-445               JUNCTION     1.82     7.95   959.20     2  07:00        5.79
  20-449               JUNCTION     1.70     7.90   959.29     2  07:00        5.66
  20-450               JUNCTION     1.39     7.64   959.34     2  07:00        5.35
  22-001               JUNCTION     0.21     0.28   781.28     0  00:00        0.27
  23-001               JUNCTION    13.74    14.67   769.25     0  00:15       14.67
  23-002               JUNCTION    13.64    16.84   771.98     0  00:15       14.59
  23-003               JUNCTION    13.18    20.25   776.13     0  00:15       14.05
  23-004               JUNCTION    12.37    16.68   773.53     0  00:15       12.97
  23-005               JUNCTION    11.60    20.20   777.92     0  00:15       12.08
  23-006               JUNCTION    11.37    13.90   771.89     0  00:15       11.83
  23-007               JUNCTION    11.12    11.40   769.77     0  00:16       11.40
  23-010               JUNCTION    10.33    15.47   774.99     0  00:17       11.27
  23-014               JUNCTION     9.35    11.77   772.41     2  17:00       10.52
  23-014X              JUNCTION     9.22    11.69   772.46     2  17:00       10.39
  23-015               JUNCTION    10.71    11.30   770.25     0  00:16       11.30
  23-016               JUNCTION    10.02    15.67   775.59     0  00:18       11.12
  23-018               JUNCTION     9.68    17.90   778.18     0  00:18       10.80
  24-001               JUNCTION    12.21    12.53   767.46     0  00:15       12.53
  24-002               JUNCTION    12.55    13.29   768.18     0  00:15       13.24
  24-003               JUNCTION    12.22    13.47   769.17     2  17:45       13.47
  24-004               JUNCTION    12.06    13.52   769.62     2  07:00       13.51
  24-005               JUNCTION    11.34    13.20   770.45     0  00:16       12.99
  24-009               JUNCTION    11.36    13.10   770.36     0  00:16       13.08
  24-012               JUNCTION    11.71    13.27   771.17     0  00:15       13.27
  24-015               JUNCTION    10.19    13.28   772.71     0  00:16       12.53
  24-019               JUNCTION     9.24    11.60   771.98     0  00:14       11.60
  24-022               JUNCTION    10.59    10.60   770.09     0  00:00       10.60
  24-023               JUNCTION    11.31    13.24   773.13     0  07:00       12.77
  24-027               JUNCTION    11.34    14.53   775.24     2  07:00       13.61
  24-031               JUNCTION    11.02    13.21   774.45     0  05:00       13.21
  24-032               JUNCTION     7.04    10.50   775.85     0  07:00        9.52
  24-066               JUNCTION    11.66    13.61   771.90     0  00:00       12.91
  24-067               JUNCTION    11.40    14.29   773.00     0  00:00       12.40
  24-072               JUNCTION    11.33    14.42   773.21     0  00:00       12.29
  24-132               JUNCTION    11.47    13.99   774.10     0  07:00       13.39
  24-133               JUNCTION    11.37    14.34   774.79     0  07:00       13.51
  24-136               JUNCTION    11.36    14.55   775.16     1  07:00       13.59
  24-137               JUNCTION    10.86    13.47   774.90     0  07:00       13.11
  25-001               JUNCTION    12.36    13.61   768.36     0  00:15       12.70
  25-001A              JUNCTION    12.58    12.60   766.72     0  00:00       12.60
  25-002               JUNCTION     4.86     8.18   770.94     0  00:18        6.26
  25-003               JUNCTION     3.84     8.90   773.51     0  00:18        6.38
  25-005               JUNCTION     1.05     1.64   772.64     2  17:45        1.60
  25-006               JUNCTION     2.00     3.78   776.44     2  17:36        3.61
  25-010               JUNCTION     1.69     3.86   776.93     2  17:36        3.70
  25-010A              JUNCTION     2.16     4.36   777.66     2  17:36        4.26
  25-011               JUNCTION     2.33     4.97   778.68     2  17:45        4.93
  25-015               JUNCTION     2.27     5.13   779.13     2  17:45        5.12
  25-016               JUNCTION     1.59     4.44   780.63     2  17:45        4.42
  25-016A              JUNCTION     1.65     4.81   779.81     2  17:45        4.80
  25-017               JUNCTION     1.63     4.45   781.64     2  17:36        4.14
  25-018               JUNCTION     0.93     0.98   782.98     2  17:45        0.98
  25-019               JUNCTION     8.51     8.51   795.14     0  00:00        8.51
  25-020               JUNCTION     0.32     0.49   795.19     0  03:01        0.47
  25-021               JUNCTION     0.49     0.71   798.64     2  17:45        0.71
  25-034               JUNCTION     7.23     8.29   799.69     0  00:01        7.97
  25-037               JUNCTION     9.53    12.26   810.26     0  00:01        9.97
  25-038               JUNCTION     8.80     8.80   808.34     0  00:01        8.80
  25-039               JUNCTION     8.42    10.50   812.18     0  00:01        8.95
  26-001               JUNCTION     9.56    10.10   813.68     0  00:03       10.10
  26-137               JUNCTION    10.12    11.62   816.89     0  07:00       10.75
  26-138               JUNCTION    10.16    10.49   816.22     0  00:00       10.49
  26-139               JUNCTION    10.31    12.18   818.38     0  00:00       11.33
  26-140               JUNCTION     9.90    12.00   819.19     0  00:00       11.42
  26-141               JUNCTION    10.24    13.25   822.67     0  00:03       13.25
  26-142               JUNCTION     5.27    11.48   827.01     0  07:00       11.48
  26-143               JUNCTION     4.49    12.66   829.68     2  17:45       12.64
  26-144               JUNCTION     4.11    13.55   831.21     3  07:00       13.24
  26-145               JUNCTION     0.69     7.83   831.52     3  07:00        7.29
  28-001               JUNCTION    11.94    12.00   871.00     0  05:00       12.00
  28-002               JUNCTION    10.19    10.20   872.36     0  00:12       10.20
  28-003               JUNCTION    10.79    10.80   874.17     0  00:12       10.80
  28-004               JUNCTION    14.29    17.30   882.24     0  00:12       14.71
  28-005               JUNCTION    10.76    13.20   887.89     0  00:11       11.30
  28-006               JUNCTION    14.35    14.50   891.35     0  00:00       14.50
  28-007               JUNCTION    16.15    16.20   893.71     0  00:00       16.20
  28-008               JUNCTION    13.58    14.83   899.26     0  00:14       13.86
  28-009               JUNCTION    13.87    15.22   901.08     0  00:00       14.06
  28-010               JUNCTION    13.98    14.00   901.08     0  00:00       14.00
  28-011               JUNCTION    15.12    15.50   906.67     0  00:00       15.50
  28-012               JUNCTION    14.78    15.70   908.62     0  00:00       15.49
  28-013               JUNCTION     8.07     9.40   910.95     0  00:14        9.10
  28-014               JUNCTION     6.06     9.60   915.69     0  00:16        7.37
  28-015               JUNCTION     7.12     9.33   916.75     1  07:00        8.54
  28-016               JUNCTION     7.42     9.35   917.93     1  07:00        8.54
  28-017               JUNCTION     8.28     8.30   919.41     0  00:15        8.30
  28-018               JUNCTION    10.70    12.40   928.79     0  00:00       12.40
  28-019               JUNCTION     6.81     9.70   930.33     0  06:01        8.85
  28-020               JUNCTION     0.76     0.86   979.05     0  06:00        0.82
  28-021               JUNCTION     4.74     5.92   984.54     2  07:00        5.65
  28-022               JUNCTION     6.15     8.12   987.45     4  07:00        7.47
  28-023               JUNCTION     7.56    10.31   990.24     3  07:00        9.25
  28-024               JUNCTION     8.74    11.79   991.86     4  07:00       10.58
  28-025               JUNCTION     9.62    12.94   993.45     3  07:00       11.62
  28-026               JUNCTION    10.47    13.80   994.62     0  07:00       12.59
  28-027               JUNCTION    11.21    14.89   995.87     0  07:00       13.34
  28-028               JUNCTION    11.96    15.83   997.09     2  07:00       14.02
  28-029               JUNCTION    12.78    16.77   998.11     2  07:00       14.79
  28-030               JUNCTION    13.43    17.31   998.84     2  07:00       15.28
  28-031               JUNCTION    14.16    17.75   999.54     2  07:00       15.74
  28-032               JUNCTION    14.23    19.18  1001.20     0  00:00       15.69
  28-033               JUNCTION    14.53    17.59   999.81     2  07:00       15.79
  28-034               JUNCTION    14.65    17.44   999.84     2  07:00       15.80
  28-035               JUNCTION    14.78    17.25   999.75     2  07:00       15.81
  28-036               JUNCTION    15.15    16.52   999.25     2  07:00       15.79
  28-037               JUNCTION    15.37    15.60   998.60     0  03:00       15.60
  28-038               JUNCTION    16.26    17.60  1000.89     0  07:00       17.23
  28-039               JUNCTION    16.97    19.39  1003.10     1  07:00       18.55
  28-040               JUNCTION    17.30    20.12  1003.95     5  07:00       19.13
  28-041               JUNCTION    17.88    21.00  1005.12     5  07:00       20.36
  28-042               JUNCTION    18.17    21.36  1005.69     5  07:00       20.97
  28-043               JUNCTION    18.37    21.60  1006.46     0  06:00       21.60
  28-044               JUNCTION    18.30    22.20  1007.45     2  07:00       21.89
  28-045               JUNCTION    18.63    23.45  1008.95     3  07:00       22.81
  28-046               JUNCTION    18.44    23.93  1010.00     3  07:00       23.01
  28-046A              JUNCTION    18.52    24.20  1010.33     3  07:00       23.23
  28-047               JUNCTION    18.63    24.56  1010.77     4  07:00       23.55
  28-048               JUNCTION    18.62    24.80  1011.31     0  07:00       23.79
  28-049               JUNCTION    18.46    24.89  1011.89     2  07:00       23.87
  28-050               JUNCTION    18.27    24.67  1012.02     2  07:00       23.76
  28-051               JUNCTION    18.19    24.45  1011.90     2  07:00       23.68
  28-052               JUNCTION    18.03    23.85  1011.49     4  07:00       23.50
  28-053               JUNCTION    17.80    23.54  1011.41     2  17:00       23.26
  28-054               JUNCTION    17.75    23.20  1011.12     0  06:00       23.20
  28-127               JUNCTION     1.67    10.15   923.70     0  00:00        3.21
  28-128               JUNCTION     0.64     1.25   949.73     0  00:00        0.69
  28-129               JUNCTION     0.74     0.83   969.31     0  07:00        0.82
  28-130               JUNCTION     1.73     3.07   974.25     3  07:00        2.53
  28-131               JUNCTION     2.96    11.52   983.34     0  00:06        4.01
  28-132               JUNCTION     3.96    10.12   982.63     0  00:06        5.23
  28-133               JUNCTION     6.00    12.47   985.67     0  00:05        7.59
  28-134               JUNCTION     8.90    19.01   992.44     0  00:04       10.89
  28-135               JUNCTION    10.51    15.59   989.26     1  07:00       12.75
  28-136               JUNCTION    12.41    17.83   991.94     3  07:00       14.94
  28-137               JUNCTION    14.82    20.55   995.08     1  07:00       17.71
  28-138               JUNCTION    16.01    21.54   996.40     4  07:00       18.78
  28-139               JUNCTION    17.44    22.71   997.86     1  07:00       20.07
  28-140               JUNCTION    18.70    23.30   999.03     0  00:04       20.71
  28-141               JUNCTION    19.36    22.08   998.30     0  00:00       20.65
  28-142               JUNCTION    18.82    20.10   997.00     0  00:01       19.72
  28-143               JUNCTION    18.16    18.17   995.70     0  00:01       18.17
  28-144               JUNCTION    19.00    19.00   997.10     0  00:01       19.00
  28-145               JUNCTION    18.96    18.97   998.00     0  00:02       18.97
  28-146               JUNCTION    19.42    19.43   999.10     0  00:03       19.43
  28-305               JUNCTION    18.31    24.72  1012.00     0  07:00       23.79
  28-306               JUNCTION    17.17    23.58  1012.00     0  07:00       22.66
  28-307               JUNCTION    16.81    23.22  1012.00     0  07:00       22.29
  28-308               JUNCTION    16.38    22.79  1012.00     0  07:00       21.85
  29-001               JUNCTION    16.49    19.57  1004.25     1  07:00       18.29
  29-002               JUNCTION    16.47    19.56  1004.28     5  07:00       18.27
  29-003               JUNCTION    16.06    19.50  1004.89     0  00:04       17.59
  29-004               JUNCTION    15.71    18.20  1003.99     4  07:00       17.04
  29-005               JUNCTION    15.55    17.97  1003.94     2  07:00       16.79
  29-006               JUNCTION    15.39    17.51  1003.66     4  07:00       16.57
  29-007               JUNCTION    15.36    20.00  1006.19     0  00:00       16.53
  29-008               JUNCTION    14.85    15.40  1002.04     0  00:03       15.40
  29-009               JUNCTION    14.11    15.03  1002.28     4  07:00       14.58
  29-009A              JUNCTION    14.07    15.00  1002.26     0  07:00       14.46
  29-009B              JUNCTION    13.49    13.50  1001.09     0  00:04       13.50
  29-010               JUNCTION    13.42    13.80  1001.51     0  00:04       13.50
  29-011               JUNCTION    13.25    13.98  1001.89     3  07:00       13.40
  29-012               JUNCTION    13.10    13.10  1001.16     0  00:03       13.10
  29-013               JUNCTION    13.40    13.70  1002.30     0  00:00       13.40
  29-021               JUNCTION    13.57    13.57  1002.32     0  00:04       13.57
  29-022               JUNCTION    14.13    15.01  1004.57     5  07:00       14.42
  29-023               JUNCTION    13.89    15.69  1007.21     2  07:00       14.48
  29-024               JUNCTION    14.41    14.82  1006.82     0  04:00       14.79
  29-025               JUNCTION    14.43    14.44  1006.91     0  00:04       14.44
  29-026               JUNCTION    15.28    15.78  1008.72     0  00:04       15.63
  29-027               JUNCTION    15.80    15.95  1009.66     0  00:03       15.95
  29-028               JUNCTION    16.30    17.69  1012.00     0  00:04       17.48
  29-029               JUNCTION    16.82    19.45  1014.36     0  07:00       19.02
  29-030               JUNCTION    16.70    19.15  1014.66     0  05:00       19.15
  29-031               JUNCTION    16.62    20.39  1016.50     0  07:00       19.98
  29-056               JUNCTION    16.21    19.83  1016.50     0  05:00       19.83
  30-026               JUNCTION    21.04    21.52  1000.31     1  15:00       21.37
  30-027               JUNCTION    22.21    22.71  1001.81     0  05:00       22.71
  30-028               JUNCTION    24.16    25.33  1004.76     0  05:00       25.33
  30-029               JUNCTION    24.57    26.55  1006.28     0  06:00       25.98
  30-030               JUNCTION    25.41    27.67  1007.75     0  06:00       26.78
  30-031               JUNCTION    25.56    26.56  1007.05     0  05:00       26.53
  30-032               JUNCTION    25.41    26.32  1007.00     0  04:00       26.32
  30-033               JUNCTION    25.21    26.10  1007.00     0  00:00       26.10
  30-034               JUNCTION    25.00    25.88  1007.00     0  00:00       25.88
  32-001               JUNCTION    16.14    17.46  1002.53     0  00:01       16.64
  32-002               JUNCTION    15.34    15.40  1001.11     0  00:01       15.40
  32-003               JUNCTION    14.63    15.59  1001.92     0  00:00       14.89
  32-004               JUNCTION    13.62    13.62  1000.56     0  00:00       13.62
  32-005               JUNCTION    13.01    14.50  1002.03     0  00:00       13.24
  32-006               JUNCTION    12.66    12.66  1000.69     0  00:00       12.66
  32-009               JUNCTION    13.12    13.73  1002.35     0  00:00       13.73
  32-010               JUNCTION    13.05    14.62  1003.76     0  00:00       14.46
  32-029               JUNCTION    11.47    16.06  1004.29     0  00:00       11.80
  32-030               JUNCTION    10.96    15.03  1003.53     0  00:00       11.30
  32-034               JUNCTION     9.48     9.48   998.44     0  00:00        9.48
  32-035               JUNCTION     9.40    11.42  1000.74     0  00:00        9.91
  32-036               JUNCTION     9.17    12.87  1002.47     0  00:00        9.76
  32-046               JUNCTION    19.70    23.01  1002.87     0  00:00       20.05
  32-047               JUNCTION    20.60    21.66  1002.16     0  00:00       21.59
  32-048               JUNCTION    21.45    24.16  1005.31     0  00:00       23.08
  32-049               JUNCTION    21.55    25.52  1007.30     0  00:02       23.14
  32-050               JUNCTION    21.17    26.75  1009.15     0  00:03       22.56
  32-051               JUNCTION    20.80    27.00  1010.02     0  00:09       21.98
  32-051X              JUNCTION    20.74    24.27  1007.35     0  00:08       21.91
  32-052               JUNCTION    20.41    24.35  1008.00     0  00:03       21.38
  32-053               JUNCTION    20.07    25.32  1009.53     0  00:04       20.86
  32-054               JUNCTION    19.73    22.14  1006.90     0  00:08       20.35
  32-055               JUNCTION    19.39    19.81  1005.13     0  00:04       19.81
  32-056               JUNCTION    19.18    20.43  1006.07     0  00:08       19.66
  32-057               JUNCTION    18.64    18.90  1005.11     0  00:04       18.90
  32-058               JUNCTION    18.34    21.06  1007.85     0  00:09       19.47
  32-059               JUNCTION    17.81    20.06  1007.42     0  07:00       19.13
  32-059X              JUNCTION    17.76    20.04  1007.46     0  07:00       19.07
  32-060               JUNCTION    17.61    19.89  1007.46     0  07:00       18.97
  32-060A              JUNCTION    17.34    19.71  1007.56     0  07:00       18.77
  32-061               JUNCTION    16.87    20.97  1009.26     0  00:05       18.33
  32-062               JUNCTION    16.30    18.53  1007.35     5  07:00       17.78
  32-063               JUNCTION    15.82    17.59  1006.85     0  00:13       17.35
  32-063X              JUNCTION    15.50    17.50  1007.00     0  00:13       16.98
  32-111               JUNCTION    12.60    15.22  1004.88     0  00:00       14.15
  33-007               JUNCTION    19.30    23.32  1000.47     0  00:00       21.01
  33-007A              JUNCTION    19.38    24.20  1001.58     0  00:00       21.24
  33-008               JUNCTION    19.24    22.21   999.92     0  00:00       21.04
  33-009               JUNCTION    18.56    21.07   999.41     0  07:00       19.95
  33-009A              JUNCTION    18.95    22.08  1000.10     0  00:00       20.71
  33-010               JUNCTION    17.73    17.73   996.50     0  00:00       17.73
  33-011               JUNCTION    18.14    18.87   998.00     0  00:00       18.69
  33-012               JUNCTION    17.46    17.91   998.00     0  00:00       17.91
  33-023               JUNCTION    16.72    19.43  1000.27     0  00:00       17.31
  33-024               JUNCTION    17.41    17.81   999.46     0  00:01       17.81
  33-025               JUNCTION    17.89    20.06  1002.18     0  07:00       18.70
  33-026               JUNCTION    17.89    18.37  1001.18     0  00:01       18.28
  33-026A              JUNCTION    17.84    18.17  1001.19     0  00:01       18.17
  33-027               JUNCTION    17.37    18.03  1001.69     0  00:01       17.81
  33-028               JUNCTION    16.97    19.73  1003.95     0  00:01       17.65
  33-074               JUNCTION    16.34    16.34   997.35     0  00:00       16.34
  33-075               JUNCTION    17.08    20.20  1000.70     0  00:00       17.71
  33-078               JUNCTION    18.09    19.81   998.71     0  00:00       18.50
  IPSN                 JUNCTION     1.13     1.42   756.92     0  07:08        1.42
  IPSS                 JUNCTION     4.41     7.04   759.44     0  00:14        4.71
  JCT-100              JUNCTION     0.00     0.00   790.50     0  00:00        0.00
  JCT-114              JUNCTION     4.26     7.38   759.48     0  00:14        4.46
  JCT-120              JUNCTION    17.67    23.10  1011.10     0  06:00       23.10
  JCT-16               JUNCTION     1.30     3.23   809.00     0  05:06        3.23
  JCT-278              JUNCTION     9.17    15.20   776.02     0  00:20       10.34
  JCT-284              JUNCTION     8.41    13.00   774.58     0  00:21        9.58
  JCT-286              JUNCTION     6.99    11.34   774.34     0  00:25        8.17
  JCT-288              JUNCTION     6.49    11.00   774.50     0  00:25        7.67
  JCT-290              JUNCTION     6.13     9.95   773.82     2  17:00        7.31
  JCT-292              JUNCTION     5.69     9.59   773.89     2  17:00        6.87
  JCT-294              JUNCTION     4.42     8.25   773.83     2  17:00        5.61
  JCT-306              JUNCTION     0.00     0.00   953.70     0  00:00        0.00
  JCT-308              JUNCTION     0.00     0.00   868.73     0  00:00        0.00
  JCT-310              JUNCTION     0.00     0.00   852.50     0  00:00        0.00
  JCT-314              JUNCTION     0.00     0.00   828.40     0  00:00        0.00
  JCT-318              JUNCTION     0.00     0.00   815.89     0  00:00        0.00
  JCT-320              JUNCTION     0.00     0.00   862.00     0  00:00        0.00
  JCT-328              JUNCTION     0.00     0.00   805.40     0  00:00        0.00
  JCT-330              JUNCTION     0.00     0.00   777.64     0  00:00        0.00
  JCT-332              JUNCTION     0.00     0.00   779.58     0  00:00        0.00
  JCT-334              JUNCTION     0.00     0.00   790.60     0  00:00        0.00
  JCT-336              JUNCTION     0.02     0.15   771.15     5  07:25        0.15
  JCT-338              JUNCTION     3.51     6.65   773.15     2  17:00        4.70
  JCT-340              JUNCTION     0.00     0.01   771.51     5  07:00        0.01
  JCT-342              JUNCTION     0.00     0.00   776.51     0  00:20        0.00
  JCT-344              JUNCTION     2.36     9.70   776.54     0  00:20        6.04
  JCT-346              JUNCTION     2.47    11.60   950.00     0  00:02        2.77
  JCT-350              JUNCTION     0.00     0.00   956.93     0  00:00        0.00
  JCT-352              JUNCTION     0.00     0.00   975.28     0  00:00        0.00
  JCT-354              JUNCTION     0.00     0.00   980.70     0  00:00        0.00
  JCT-358              JUNCTION    19.99    20.00   993.85     0  00:04       20.00
  JCT-362              JUNCTION     4.32    13.32   992.90     0  00:13        5.92
  JCT-368              JUNCTION     0.00     0.00   963.48     0  00:00        0.00
  JCT-370              JUNCTION     0.00     0.00   964.29     0  00:00        0.00
  JCT-372              JUNCTION     0.00     0.00   965.27     0  00:00        0.00
  JCT-374              JUNCTION     0.00     0.00   966.26     0  00:00        0.00
  JCT-376              JUNCTION     0.00     0.00   909.58     0  00:00        0.00
  JCT-378              JUNCTION     0.00     0.00   929.68     0  00:00        0.00
  JCT-380              JUNCTION     0.00     0.00   958.00     0  00:00        0.00
  JCT-382              JUNCTION     0.00     0.00   968.00     0  00:00        0.00
  JCT-384              JUNCTION     0.00     0.00   970.00     0  00:00        0.00
  JCT-386              JUNCTION     0.00     0.00   972.00     0  00:00        0.00
  JCT-388              JUNCTION     0.98     6.74   958.94     3  09:00        4.85
  JCT-390              JUNCTION     0.60     8.20   961.12     2  09:01        4.13
  JCT-392              JUNCTION     0.38     5.03   958.68     2  08:02        3.40
  JCT-394              JUNCTION     0.21     3.99   958.60     2  08:02        2.43
  JCT-396              JUNCTION     0.12     1.88   957.03     5  08:00        1.87
  JCT-398              JUNCTION     0.02     0.94   957.04     0  08:01        0.87
  JCT-400              JUNCTION     0.00     0.00   950.33     0  00:00        0.00
  JCT-402              JUNCTION     0.00     0.00   951.22     0  00:00        0.00
  JCT-404              JUNCTION     0.00     0.00   952.12     0  00:00        0.00
  JCT-406              JUNCTION     0.00     0.00   949.23     0  00:00        0.00
  JCT-410              JUNCTION     0.47     0.77   941.17     2  07:58        0.77
  JCT-412              JUNCTION     0.00     0.00   941.83     0  00:00        0.00
  JCT-414              JUNCTION     0.00     0.00   942.95     0  00:00        0.00
  JCT-416              JUNCTION     0.00     0.00   943.92     0  00:00        0.00
  JCT-418              JUNCTION     0.00     0.00   945.48     0  00:00        0.00
  JCT-420              JUNCTION     0.00     0.00   946.80     0  00:00        0.00
  JCT-422              JUNCTION     0.00     0.00   948.26     0  00:00        0.00
  JCT-424              JUNCTION     0.29     4.86   958.96     1  08:00        2.96
  JCT-426              JUNCTION     0.21     3.81   958.46     0  08:01        2.40
  JCT-428              JUNCTION     0.07     1.45   957.00     0  08:00        1.43
  JCT-434              JUNCTION     0.00     0.00   959.22     0  00:00        0.00
  JCT-436              JUNCTION     0.00     0.00   960.89     0  00:00        0.00
  JCT-438              JUNCTION     0.00     0.00   962.76     0  00:00        0.00
  JCT-444              JUNCTION     0.00     0.00   957.43     0  00:00        0.00
  JCT-446              JUNCTION     0.00     0.00   964.82     0  00:00        0.00
  JCT-448              JUNCTION     0.00     0.00   966.88     0  00:00        0.00
  JCT-450              JUNCTION    28.33    33.65  1010.00     0  00:06       28.64
  JCT-452              JUNCTION    27.51    35.84  1013.00     0  00:08       27.83
  JCT-454              JUNCTION    26.72    32.06  1010.00     0  00:11       27.05
  JCT-456              JUNCTION    25.93    29.28  1008.00     0  00:14       26.27
  JCT-458              JUNCTION    25.05    26.87  1006.46     0  01:15       25.41
  JCT-460              JUNCTION    24.31    26.31  1006.63     0  01:15       24.66
  JCT-462              JUNCTION    23.58    25.52  1006.58     0  01:15       23.94
  JCT-464              JUNCTION    22.74    24.47  1006.36     0  01:15       23.10
  JCT-468              JUNCTION    21.97    23.47  1006.13     0  01:15       22.33
  JCT-470              JUNCTION    21.21    22.55  1005.97     0  01:15       21.58
  JCT-472              JUNCTION    20.53    21.65  1005.75     0  01:15       20.89
  JCT-474              JUNCTION    19.88    20.75  1005.49     0  01:15       20.25
  JCT-476              JUNCTION    19.23    19.60  1005.00     0  01:15       19.59
  JCT-478              JUNCTION    18.60    18.96  1005.00     0  01:15       18.96
  JCT-480              JUNCTION    17.69    19.59  1006.53     0  01:15       18.05
  JCT-482              JUNCTION    16.91    20.13  1007.86     0  01:15       17.27
  JCT-484              JUNCTION    16.14    19.75  1008.27     0  01:15       16.51
  JCT-486              JUNCTION    15.47    19.58  1008.77     0  01:15       15.83
  JCT-488              JUNCTION    16.91    22.25  1011.00     0  06:00       22.25
  JCT-490              JUNCTION    16.02    24.39  1014.00     0  00:22       21.18
  JCT-492              JUNCTION    15.05    22.46  1013.00     0  00:25       20.00
  JCT-494              JUNCTION    14.05    19.26  1010.76     2  17:00       18.78
  JCT-496              JUNCTION    13.02    17.51  1010.00     0  06:00       17.51
  JCT-498              JUNCTION    11.95    16.47  1010.00     1  05:00       16.26
  JCT-500              JUNCTION    10.67    15.24  1010.00     0  00:47       14.76
  JCT-502              JUNCTION     9.43    13.96  1009.92     5  05:00       13.28
  JCT-504              JUNCTION     8.39    12.71  1009.68     5  05:00       12.04
  JCT-506              JUNCTION     7.19    11.12  1009.26     1  05:00       10.62
  JCT-508              JUNCTION     6.13     9.83  1009.00     1  05:00        9.36
  JCT-510              JUNCTION     5.03     8.53  1008.77     1  05:00        8.04
  JCT-512              JUNCTION     3.91     6.59  1008.00     0  05:00        6.59
  JCT-514              JUNCTION     2.83     5.33  1008.00     0  05:00        5.33
  JCT-518              JUNCTION    14.35    17.79  1008.00     0  00:08       15.50
  JCT-520              JUNCTION    13.14    21.04  1012.00     0  00:11       13.96
  JCT-522              JUNCTION    12.00    23.23  1014.89     0  00:13       12.53
  JCT-524              JUNCTION    11.01    16.72  1009.00     0  00:15       11.26
  JCT-526              JUNCTION    10.19    10.22  1003.00     0  00:18       10.22
  JCT-528              JUNCTION     9.65    12.67  1006.00     0  00:18        9.68
  JCT-564              JUNCTION     0.00     0.00   975.00     0  00:00        0.00
  JCT-566              JUNCTION     0.00     0.00   973.62     0  00:00        0.00
  JCT-568              JUNCTION     0.00     0.00   965.00     0  00:00        0.00
  JCT-570              JUNCTION     0.00     0.00   960.00     0  00:00        0.00
  JCT-572              JUNCTION     0.00     0.00   955.00     0  00:00        0.00
  JCT-574              JUNCTION     0.00     0.00   953.57     0  00:00        0.00
  JCT-576              JUNCTION     0.00     0.00   952.14     0  00:00        0.00
  JCT-578              JUNCTION     0.00     0.00   950.73     0  00:00        0.00
  JCT-580              JUNCTION     0.00     0.00   949.33     0  00:00        0.00
  JCT-582              JUNCTION     0.00     0.00   947.56     0  00:00        0.00
  JCT-584              JUNCTION     0.00     0.00   946.10     0  00:00        0.00
  JCT-586              JUNCTION     0.00     0.00   944.58     0  00:00        0.00
  JCT-588              JUNCTION     0.00     0.00   943.10     0  00:00        0.00
  JCT-590              JUNCTION     0.00     0.00   940.00     0  00:00        0.00
  JCT-592              JUNCTION     0.00     0.00   938.68     0  00:00        0.00
  JCT-596              JUNCTION     0.00     0.00   937.12     0  00:00        0.00
  JCT-598              JUNCTION     0.00     0.00   990.00     0  00:00        0.00
  JCT-60               JUNCTION     9.79    15.00  1006.40     0  00:10       10.46
  JCT-600              JUNCTION     0.00     0.00   970.00     0  00:00        0.00
  JCT-602              JUNCTION     0.00     0.00   950.00     0  00:00        0.00
  JCT-604              JUNCTION     0.00     0.00   935.95     0  00:00        0.00
  JCT-606              JUNCTION     0.00     0.00   934.87     0  00:00        0.00
  JCT-62               JUNCTION     0.00     0.00   818.25     2  06:06        0.00
  JCT-632              JUNCTION     0.00     0.00   987.50     0  00:00        0.00
  JCT-634              JUNCTION     0.00     0.00   987.60     0  00:00        0.00
  JCT-636              JUNCTION     0.00     0.00   986.90     0  00:00        0.00
  JCT-64               JUNCTION     0.34     7.33   820.65     2  06:06        2.38
  JCT-640              JUNCTION     0.00     0.00   986.27     0  00:00        0.00
  JCT-66               JUNCTION     1.16     9.26   821.32     0  05:06        3.63
  JCT-68               JUNCTION     1.77     6.31   817.75     2  06:06        4.25
  JCT-70               JUNCTION     0.00     0.00   751.80     0  00:00        0.00
  JCT-72               JUNCTION     0.00     0.00   749.78     0  00:00        0.00
  JCT-74               JUNCTION     2.99    15.00   838.53     0  00:21        3.68
  JCT-76               JUNCTION     7.24    14.86   834.13     0  00:11        7.94
  JCT-78               JUNCTION     7.57    14.26   833.21     0  00:11        8.25
  JCT-80               JUNCTION    13.69    15.00   998.09     0  00:05       13.90
  JCT-82               JUNCTION    14.81    15.00   996.97     0  00:04       15.00
  JCT-84               JUNCTION     5.47    14.81   829.00     0  09:01        8.50
  JCT-86               JUNCTION     7.62    15.00   827.03     0  00:09       10.66
  JCT-88               JUNCTION     0.00     0.00   971.56     0  00:00        0.00
  JCT-90               JUNCTION     0.00     0.00   966.00     0  00:00        0.00
  JCT-94               JUNCTION     0.00     0.00   962.50     0  00:00        0.00
  MONKSWETWELL         JUNCTION     4.92     9.00   807.89     0  00:02        7.59
[...]
  28-032-28-031             142.83    142.84    142.83    136.60       131.38
  28-033-28-032             142.84    142.85    142.84    142.85       142.79
  28-034-28-033             142.84    142.84    142.85    136.83       138.88
  28-035-28-034             142.84    142.85    142.84    142.87       139.12
  28-036-28-035             142.84    142.85    142.85    136.89       138.76
  28-037-28-036             142.85    142.86    142.85    124.92       125.98
  28-038-28-037             142.86    142.87    142.86    142.89       142.84
  28-039-28-038             142.87    142.88    142.87    142.77       142.73
  28-040-28-039             142.88    142.88    142.88    142.93       142.84
  28-041-28-040             142.89    142.89    142.89    141.86       141.04
  28-042-28-041             142.88    142.88    142.89    120.03       127.75
  28-043-28-042             142.86    142.86    142.88     94.78        94.92
  28-044-28-043             142.86    142.86    142.86     29.97        28.58
  28-045-28-044             142.85    142.85    142.86    119.84       120.44
  28-046-28-045             142.84    142.84    142.85     18.02        18.32
  28-046A-28-046            142.84    142.84    142.84    120.06       116.33
  28-047-28-046A            142.83    142.83    142.84    120.17       124.58
  28-048-28-047             142.81    142.82    142.83     48.23        52.57
  28-049-28-048             142.78    142.78    142.82     18.01        18.29
  28-050-28-305             142.75    142.75    142.76      0.01        30.35
  28-051-28-050             142.74    142.75    142.75      0.01         1.54
  28-052-28-051             142.73    142.73    142.75      0.01         0.11
  28-053-28-052             142.72    142.73    142.73      0.01         0.02
  28-054-28-053             142.72    142.72    142.73      0.01        23.22
  28-127-28-015              77.59     95.50    102.53     54.28        48.00
  28-128-28-127               0.01      0.01     95.50      0.01         0.01
  28-129-28-128               0.01      0.01      0.01      0.01         0.01
  28-130-28-129               0.01    101.96      0.01      0.01         0.01
  28-131-28-130             101.96    142.89    101.96    142.89       101.96
  28-132-28-131             142.89    142.89    142.89    142.90       142.89
  28-133-28-132             142.89    142.92    142.89    142.92       142.89
  28-134-28-133             142.92    142.93    142.92    142.93       142.91
  28-135-28-134             142.93    142.94    142.93    142.94       142.93
  28-136-28-135             142.94    142.95    142.94    142.95       142.94
  28-137-28-136             142.95    142.97    142.95    142.97       142.95
  28-138-28-137             142.97    142.97    142.97    142.97       142.96
  28-139-28-138             142.97    142.99    142.97    143.00       142.97
  28-140-28-139             142.99    142.99    142.99    142.98       142.98
  28-141-28-140             142.99    143.00    142.99    136.99       136.94
  28-142-28-141             143.00    143.00    143.00      0.01         0.12
  28-143-28-142             142.99    142.99    143.00      5.98         0.09
  28-144-28-143             142.98    142.98    142.99    142.93       142.95
  28-145-28-144             142.97    142.97    142.98    142.78       142.81
  28-146-28-145             142.97    142.97    142.97    142.75       142.74
  28-305-28-049             142.76    142.76    142.78      0.04         0.34
  28-306-28-305             142.68    142.68    142.69      0.01         0.03
  28-307-28-306             142.67    142.67    142.67      0.01         0.01
  28-308-28-307             142.66    142.66    142.67      0.01         0.01
  29-001-28-040             142.88    142.89    142.92      0.01         0.01
  29-002-29-001             142.89    142.92    142.89      0.36        16.55
  29-003-29-002             142.91    142.93    142.92     22.93        22.94
  29-004-29-003             142.93    142.94    142.93      4.95         4.81
  29-005-29-004             142.94    142.95    142.94      5.26         5.07
  29-006-29-005             142.95    142.95    142.95      4.14         5.05
  29-007-29-006             142.95    142.96    142.95      6.41        46.38
  29-008-29-007             142.95    142.95    142.96     12.37         0.45
  29-009-29-008             142.95    142.96    142.95      0.31         0.29
  29-009A-29-009            142.96    142.97    142.96    117.57        32.83
  29-009B-29-009A           142.97    142.97    142.97     48.12         0.31
  29-010-29-009B            142.97    142.98    142.97      0.34         0.35
  29-011-29-010             142.98    142.98    142.98      0.34         0.29
  29-012-29-011             142.98    142.98    142.98      0.31         0.28
  29-013-29-012             142.98    142.98    142.99    142.98       142.96
  29-021-29-013             142.99    142.99    142.99    143.00       142.97
  29-022-29-021             142.98    143.00    142.98    142.98       142.96
  29-023-29-022             142.98    142.99    142.99     18.00        17.67
  29-024-29-023             142.98    143.00    142.98    142.99       142.94
  29-025-29-024             142.99    143.00    142.99    124.96       124.88
  29-026-29-025             142.99    143.00    142.99    142.94       142.92
  29-027-29-026             142.97    142.97    142.97    142.93       142.90
  29-028-29-027             142.96    142.97    142.97    120.01       119.96
  29-029-29-028             142.96    142.98    142.96    120.01       119.97
  29-030-29-029             142.96    142.97    142.96     59.86        54.74
  29-031-29-030             142.95    142.95    142.96     48.04        50.05
  29-056-29-031             142.95    142.95    142.95      0.01         0.04
  30-026-28-144             142.97    142.99    142.97    143.00       142.97
  30-027-30-026             142.98    142.99    142.99    143.00       142.98
  30-028-30-027             142.99    143.00    142.99    143.00       142.98
  30-029-30-028             143.00    143.00    143.00    142.96       142.93
  30-030-30-029             143.00    143.00    143.00    142.97       142.96
  30-031-30-030             143.00    143.00    143.00    125.01       125.55
  30-032-30-031             142.99    142.99    142.99      0.01         5.37
  30-033-30-032             142.98    142.98    142.99      0.01         0.05
  30-034-30-033             142.98    142.98    142.98      0.01         0.05
  32-001-33-028             143.00    143.00    143.00      0.01         0.02
  32-002-32-001             143.00    143.00    143.00      6.01         0.03
  32-003-32-002             143.00    143.00    143.00      0.01         0.06
  32-004-32-003             143.00    143.00    143.00      6.10         0.02
  32-005-32-004             143.00    143.00    143.00      0.01         0.02
  32-006-32-005             143.00    143.00    143.00      0.02         0.06
  32-009-32-006             143.00    143.00    143.00    120.00       119.92
  32-010-32-009             143.00    143.00    143.00     59.90        55.03
  32-029-32-005             142.99    142.99    143.00    142.98         0.01
  32-030-32-029             142.99    143.00    142.99    142.98         0.01
  32-034-32-030             143.00    143.00    143.00    142.99         0.01
  32-035-32-034             143.00    143.00    143.00     59.95        54.20
  32-036-32-035             143.00    143.00    143.00      0.01         0.09
  32-046-28-146             142.96    142.97    142.97    142.83       142.81
  32-047-32-046             142.96    142.97    142.96    142.73       142.73
  32-048-32-047             142.96    142.98    142.96    142.72       142.73
  32-049-32-048             142.96    142.96    142.97    142.60       141.06
  32-050-32-049             142.95    142.95    142.96      0.03         0.12
  32-051-32-050             142.94    142.94    142.95      0.02         0.13
  32-051X-32-051            142.94    142.94    142.94      0.04         0.07
  32-052-32-051             142.94    142.94    142.94      0.01         0.05
  32-053-32-052             142.93    142.94    142.93      0.05         0.06
  32-054-32-053             142.93    142.95    142.93      0.01         0.06
  32-055-32-054             142.94    142.94    142.94      0.02         0.07
  32-056-32-055             142.94    142.94    142.94      0.04         0.30
  32-057-32-056             142.93    142.93    142.93      0.02         0.03
  32-058-32-057             142.93    142.95    142.93     18.06        18.18
  32-059-32-058             142.93    142.93    142.93      0.08         0.10
  32-059X-32-059            142.93    142.93    142.93      0.01         0.06
  32-060-32-059             142.92    142.92    142.92      0.10         0.04
  32-060A-32-060            142.92    142.93    142.92      0.07         0.04
  32-061-32-060A            142.92    142.92    142.92      0.09         0.02
  32-062-32-061             142.91    142.92    142.92      0.12         0.03
  32-063-32-062             142.91    142.92    142.92      0.13         0.02
  32-063X-32-063            142.89    142.90    142.90      0.19         0.01
  32-111-32-010             143.00    143.00    143.00      0.01         0.07
  33-007-28-141             142.99    142.99    143.00    142.95       141.57
  33-007A-33-007            142.99    143.00    142.99    143.00       132.89
  33-008-33-007A            143.00    143.00    143.00      0.09         0.43
  33-009-33-009A            143.00    143.00    143.00      6.02         0.10
  33-009A-33-008            143.00    143.00    143.00      0.05         0.09
  33-010-33-009             143.00    143.00    143.00     30.07         0.09
  33-011-33-078             143.00    143.00    143.00    107.99       106.81
  33-012-33-011             143.00    143.00    143.00      0.01         0.01
  33-023-33-075             143.00    143.00    143.00      0.01         0.02
  33-024-33-074             143.00    143.00    143.00    142.97       142.96
  33-025-33-024             143.00    143.00    143.00    142.98       142.96
  33-026-33-025             142.98    142.98    143.00    124.85       123.07
  33-026A-33-026            142.98    142.99    142.98    124.98        79.19
  33-027-33-026A            142.98    142.98    142.98      0.01         0.01
  33-028-33-027             142.98    143.00    142.98      0.03         0.05
  33-074-33-023             143.00    143.00    143.00     78.00         0.10
  33-075-33-012             143.00    143.00    143.00      0.01         0.04
  33-078-33-010             143.00    143.00    143.00    142.98       142.96
  CDT-105                   142.94    142.96    142.94    122.99       126.14
  CDT-109                   142.79    142.79    142.80      0.02         0.01
  CDT-21                    142.79    142.86    142.79    142.98       142.79
  CDT-25                    142.83    142.83    142.99      0.05         0.01
  CDT-255                   142.66    142.66    142.67      0.18         0.05
  CDT-257                   142.64    142.64    142.66      0.04         0.01
  CDT-259                   142.61    142.61    142.64      0.01         0.01
  CDT-261                   142.57    142.57    142.61      0.01         0.01
  CDT-263                   142.52    142.52    142.57      0.08         0.02
  CDT-265                   142.49    142.49    142.52      0.02         0.02
  CDT-267                   142.42    142.42    142.49      0.01         0.01
  CDT-27                      0.01      0.01     14.69      0.01         0.01
  CDT-271                   142.05    142.05    142.42      0.01         0.01
  CDT-273                     0.01      0.01    142.06      0.01         0.01
  CDT-275                     0.01      0.01    142.04      0.01         0.01
  CDT-29                     17.16     17.16     76.40      0.01         0.02
  CDT-313                   142.93    142.93    142.96     18.12         0.01
  CDT-315                   142.78    142.78    142.85      0.01         0.01
  CDT-317                   117.91    117.91    142.73      0.01         0.01
  CDT-319                     0.01      0.01      0.02      0.01         0.01
  CDT-325                   142.95    142.95    142.98      0.02         0.01
  CDT-327                   142.64    142.64    142.80      0.01         0.01
  CDT-33                    117.57    117.57    141.88      0.01         0.03
  CDT-349                    21.26     21.29     28.00      0.01         0.07
  CDT-353                    11.51     11.51     16.27      0.01         0.02
  CDT-361                     0.01      0.01    142.95      0.01         0.01
  CDT-387                    16.27     16.27     21.29      0.01         0.11
  CDT-389                     8.97      8.97     11.51      0.01         0.01
  CDT-391                     3.51      3.51      8.97      0.01         0.01
  CDT-393                     3.20      3.26      3.51      0.45         0.27
  CDT-395                     0.25      0.25      3.26      0.01         0.01
  CDT-397                     0.01      0.01      0.25      0.01         0.01
  CDT-423                   142.90    142.90    142.94      0.78         0.01
  CDT-425                   142.86    142.86    142.90      0.74         0.01
  CDT-427                   142.82    142.82    142.86      0.71         0.01
  CDT-429                   142.71    142.71    142.76      0.61         0.01
  CDT-43                    142.84    142.84    142.97      0.03         0.05
  CDT-431                   142.76    142.76    142.82      0.66         0.01
  CDT-433                   142.66    142.66    142.71      0.56         0.01
  CDT-435                   142.59    142.59    142.66      0.49         0.01
  CDT-437                   142.53    142.53    142.59      0.43         0.01
  CDT-439                   142.46    142.46    142.53      0.36         0.01
  CDT-441                   142.39    142.39    142.46      0.29         0.01
  CDT-443                   142.32    142.32    142.39      0.24         0.01
  CDT-445                   142.25    142.25    142.32      0.16         0.01
  CDT-447                   142.18    142.18    142.25      0.09         0.01
  CDT-449                   142.10    142.10    142.18      0.04         0.01
  CDT-45                    142.91    142.91    142.92      0.01         0.01
  CDT-451                   141.99    141.99    142.10      0.01         0.01
  CDT-453                   141.88    141.88    141.99      0.01         0.01
  CDT-455                   141.78    141.78    141.88      0.01         0.01
  CDT-457                   141.75    141.75    141.78      0.01         0.01
  CDT-459                   142.67    142.67    142.74      0.02         0.01
  CDT-461                   142.63    142.63    142.68      0.20         0.01
  CDT-463                   142.58    142.58    142.63      0.17         0.01
  CDT-465                   142.52    142.52    142.58      0.12         0.01
  CDT-467                   142.45    142.45    142.52      0.06         0.01
  CDT-469                   142.34    142.34    142.45      0.01         0.01
  CDT-47                    142.92    142.92    143.00      0.04         0.01
  CDT-471                   142.21    142.21    142.34      0.01         0.01
  CDT-473                   142.06    142.06    142.21      0.01         0.01
  CDT-475                   141.89    141.89    142.06      0.01         0.01
  CDT-477                   141.64    141.64    141.89      0.01         0.01
  CDT-479                   138.71    138.71    141.64      0.01         0.01
  CDT-481                   120.40    120.40    138.71      0.01         0.01
  CDT-483                   116.28    116.28    120.40      0.01         0.01
  CDT-485                    95.67     95.67    116.24      0.01         0.02
  CDT-489                   142.85    142.85    142.90      6.14         0.01
  CDT-49                    138.92    138.92    142.84      0.01         0.01
  CDT-491                   142.81    142.81    142.85      6.11         0.01
  CDT-493                   142.78    142.78    142.81      6.08         0.01
  CDT-495                   142.75    142.75    142.78      6.05         0.01
  CDT-497                   142.71    142.71    142.75      6.02         0.01
  CDT-499                   142.70    142.70    142.71      0.01         0.01
  CDT-51                    142.86    142.86    143.00      0.01         0.01
  CDT-605                   142.97    142.97    143.00    142.99         0.01
  CDT-73                      0.01      0.01     29.17      0.01         0.01
  CDT-81                    142.76    142.76    142.76    142.76       142.76
  CDT-83                    142.76    142.76    142.76    142.76       142.76
  CDT-85                      0.01      0.01    142.77      0.01         0.01
  CDT-89                    142.81    142.81    142.84      0.02         0.01
  CDT-93                    142.92    142.92    142.93      0.01         0.01
  CDT-97                     76.41     76.41    117.57      0.01         0.04
  CDT-99                    142.70    142.70    142.72      0.01         7.61
  JCT-16-06-001              45.92     45.93     60.98      0.01         0.01
  
  
  ***************
  Pumping Summary
  ***************
  
  ---------------------------------------------------------------------------------------------------------
                                                  Min       Avg       Max     Total     Power    % Time Off
                        Percent   Number of      Flow      Flow      Flow    Volume     Usage    Pump Curve
  Pump                 Utilized   Start-Ups       MGD       MGD       MGD  10^6 gal     Kw-hr    Low   High
  ---------------------------------------------------------------------------------------------------------
  3RDAVE_PUMP              0.00           0      0.00      0.00      0.00     0.000      0.00    0.0    0.0
  AIRPORT_PUMP             0.00           0      0.00      0.00      0.00     0.000      0.00    0.0    0.0
  HARPER_PUMP              0.00           0      0.00      0.00      0.00     0.000      0.00    0.0    0.0
  HIGHWAY_169_PUMP         0.00           0      0.00      0.00      0.00     0.000      0.00    0.0    0.0
  LUNDIN_PUMP              0.00           0      0.00      0.00      0.00     0.000      0.00    0.0    0.0
  MADISON_LAKE_PUMP        0.00           0      0.00      0.00      0.00     0.000      0.00    0.0    0.0
  MOHR_DR_PUMP             0.00           0      0.00      0.00      0.00     0.000      0.00    0.0    0.0
  MONKS_PUMP              99.99           1      0.00      0.44      0.44     2.645    399.98    0.0    0.0
  MULBERRY_PUMP           99.92           1      0.00      2.88      2.88    17.145    379.25    0.0    0.0
  NORTHSIDE_PUMP           0.00           0      0.00      0.00      0.00     0.000      0.00    0.0    0.0
  POHL_CREEK_PUMP          0.00           0      0.00      0.00      0.00     0.000      0.00    0.0    0.0
  PUMP-11                 99.99           1      0.00      1.09     65.91     6.204    238.23    0.0    0.0
  PUMP-13                 99.99           1      0.00      1.01     20.24     5.804    319.99    0.0    0.0
  PUMP-15                  0.00           0      0.00      0.00      0.00     0.000      0.00    0.0    0.0
  PUMP-21                  0.00           0      0.00      0.00      0.00     0.000      0.00    0.0    0.0
  STOLTZMAN_PUMP           0.00           0      0.00      0.00      0.00     0.000      0.00    0.0    0.0
  TELEMARK_PUMP            0.00           0      0.00      0.00      0.00     0.000      0.00    0.0    0.0
  

  Analysis begun on:  Fri Nov 29 09:04:50 2019
  Analysis ended on:  Fri Nov 29 09:06:47 2019
  Total elapsed time: 00:01:57