
  EPA STORM WATER MANAGEMENT MODEL - VERSION 5.1 (Build 5.1.013)
  --------------------------------------------------------------

  WARNING 04: minimum elevation drop used for Conduit C1
  WARNING 04: minimum elevation drop used for Conduit C2
  WARNING 04: minimum elevation drop used for Conduit C3
  WARNING 04: minimum elevation drop used for Conduit C4
  WARNING 04: minimum elevation drop used for Conduit C5
  WARNING 04: minimum elevation drop used for Conduit C6
  WARNING 04: minimum elevation drop used for Conduit C7
  WARNING 04: minimum elevation drop used for Conduit C8
  WARNING 04: minimum elevation drop used for Conduit C9
  WARNING 04: minimum elevation drop used for Conduit C10
  WARNING 04: minimum elevation drop used for Conduit C11
  WARNING 04: minimum elevation drop used for Conduit C12
  WARNING 04: minimum elevation drop used for Conduit C13
  WARNING 04: minimum elevation drop used for Conduit C14
  WARNING 04: minimum elevation drop used for Conduit C15
  WARNING 04: minimum elevation drop used for Conduit C16
  WARNING 04: minimum elevation drop used for Conduit C17
  WARNING 04: minimum elevation drop used for Conduit C18
  WARNING 04: minimum elevation drop used for Conduit C19
  WARNING 04: minimum elevation drop used for Conduit C20
  WARNING 04: minimum elevation drop used for Conduit C21
  WARNING 04: minimum elevation drop used for Conduit C22
  WARNING 04: minimum elevation drop used for Conduit C23
  WARNING 04: minimum elevation drop used for Conduit C24
  WARNING 04: minimum elevation drop used for Conduit C25
  WARNING 04: minimum elevation drop used for Conduit C26
  WARNING 04: minimum elevation drop used for Conduit C27
  WARNING 04: minimum elevation drop used for Conduit C28
  WARNING 04: minimum elevation drop used for Conduit C29
  WARNING 04: minimum elevation drop used for Conduit C30
  WARNING 04: minimum elevation drop used for Conduit C31
  WARNING 04: minimum elevation drop used for Conduit C32
  WARNING 04: minimum elevation drop used for Conduit C33
  WARNING 04: minimum elevation drop used for Conduit C34
  WARNING 04: minimum elevation drop used for Conduit C35
  WARNING 04: minimum elevation drop used for Conduit C36
  WARNING 04: minimum elevation drop used for Conduit C37
  WARNING 04: minimum elevation drop used for Conduit C38
  WARNING 04: minimum elevation drop used for Conduit C39
  WARNING 04: minimum elevation drop used for Conduit C40
  WARNING 04: minimum elevation drop used for Conduit C41
  WARNING 04: minimum elevation drop used for Conduit C42
  WARNING 04: minimum elevation drop used for Conduit C43
  WARNING 04: minimum elevation drop used for Conduit C44
  WARNING 04: minimum elevation drop used for Conduit C45
  WARNING 04: minimum elevation drop used for Conduit C46
  WARNING 04: minimum elevation drop used for Conduit C47
  WARNING 04: minimum elevation drop used for Conduit C48
  WARNING 04: minimum elevation drop used for Conduit C49
  WARNING 04: minimum elevation drop used for Conduit C50
  WARNING 04: minimum elevation drop used for Conduit C51
  WARNING 04: minimum elevation drop used for Conduit C52
  WARNING 04: minimum elevation drop used for Conduit C53
  WARNING 04: minimum elevation drop used for Conduit C54
  WARNING 04: minimum elevation drop used for Conduit C55
  WARNING 04: minimum elevation drop used for Conduit C56
  WARNING 04: minimum elevation drop used for Conduit C57
  WARNING 04: minimum elevation drop used for Conduit C58
  WARNING 04: minimum elevation drop used for Conduit C59
  WARNING 04: minimum elevation drop used for Conduit C60
  WARNING 04: minimum elevation drop used for Conduit C61
  WARNING 04: minimum elevation drop used for Conduit C62
  WARNING 04: minimum elevation drop used for Conduit C63
  
  *********************************************************
  NOTE: The summary statistics displayed in this report are
  based on results found at every computational time step,  
  not just on results from each reporting time step.
  *********************************************************
  
  ****************
  Analysis Options
  ****************
  Flow Units ............... CMS
  Process Models:
    Rainfall/Runoff ........ YES
    RDII ................... NO
    Snowmelt ............... NO
    Groundwater ............ NO
    Flow Routing ........... YES
    Ponding Allowed ........ NO
    Water Quality .......... NO
  Infiltration Method ...... CURVE_NUMBER
  Flow Routing Method ...... DYNWAVE
  Surcharge Method ......... EXTRAN
  Starting Date ............ 12/06/2017 00:00:00
  Ending Date .............. 12/06/2017 06:00:00
  Antecedent Dry Days ...... 0.0
  Report Time Step ......... 00:05:00
  Wet Time Step ............ 00:05:00
  Dry Time Step ............ 01:00:00
  Routing Time Step ........ 30.00 sec
  Variable Time Step ....... YES
  Maximum Trials ........... 8
  Number of Threads ........ 1
  Head Tolerance ........... 0.005000 m
  
  
  **************************        Volume         Depth
  Runoff Quantity Continuity     hectare-m            mm
  **************************     ---------       -------
  Total Precipitation ......        12.790       107.385
  Evaporation Loss .........         0.000         0.000
  Infiltration Loss ........         5.996        50.347
  Surface Runoff ...........         6.705        56.299
  Final Storage ............         0.116         0.972
  Continuity Error (%) .....        -0.217
  
  
  **************************        Volume        Volume
  Flow Routing Continuity        hectare-m      10^6 ltr
  **************************     ---------     ---------
  Dry Weather Inflow .......         0.000         0.000
  Wet Weather Inflow .......         6.709        67.094
  Groundwater Inflow .......         0.000         0.000
  RDII Inflow ..............         0.000         0.000
  External Inflow ..........         0.000         0.000
  External Outflow .........         0.582         5.822
  Flooding Loss ............         4.507        45.071
  Evaporation Loss .........         0.000         0.000
  Exfiltration Loss ........         0.000         0.000
  Initial Stored Volume ....         0.000         0.000
  Final Stored Volume ......         1.638        16.381
  Continuity Error (%) .....        -0.267
  
  
  *************************
  Highest Continuity Errors
  *************************
  Node J48 (40.26%)
  Node J8 (32.92%)
  Node J50 (32.03%)
  Node J34 (26.54%)
  Node J7 (26.15%)
  
  
  ***************************
  Time-Step Critical Elements
  ***************************
  Link C38 (1.21%)
  Link C10 (1.07%)
  
  
  ********************************
  Highest Flow Instability Indexes
  ********************************
  Link C57 (18)
  Link C58 (18)
  Link C55 (17)
  Link C56 (16)
  Link C17 (16)
  
  
  *************************
  Routing Time Step Summary
  *************************
  Minimum Time Step           :     7.66 sec
  Average Time Step           :    28.95 sec
  Maximum Time Step           :    30.00 sec
  Percent in Steady State     :     0.00
  Average Iterations per Step :     2.03
  Percent Not Converging      :     0.00
  
  
  ***************************
  Subcatchment Runoff Summary
  ***************************
  
  ------------------------------------------------------------------------------------------------------------------------------
                            Total      Total      Total      Total     Imperv       Perv      Total       Total     Peak  Runoff
                           Precip      Runon       Evap      Infil     Runoff     Runoff     Runoff      Runoff   Runoff   Coeff
  Subcatchment                 mm         mm         mm         mm         mm         mm         mm    10^6 ltr      CMS
  ------------------------------------------------------------------------------------------------------------------------------
  S01                      107.39       0.00       0.00      79.09       3.87      23.82      27.69        8.22     2.28   0.258
  S02                      107.39       0.00       0.00      28.27       0.54      78.67      79.20        1.35     0.32   0.738
  S03                      107.38       0.00       0.00      57.44      22.63      27.08      49.70        1.84     0.48   0.463
  S04                      107.39       0.00       0.00      24.09      27.02      56.17      83.19        4.16     0.93   0.775
  S05                      107.38       0.00       0.00      24.36      65.31      17.97      83.28        3.33     0.71   0.776
  S06                      107.38       0.00       0.00      66.50       0.00      40.45      40.45        1.94     0.63   0.377
  S07                      107.39       0.00       0.00      29.16      49.46      29.06      78.53        2.98     0.66   0.731
  S08                      107.39       0.00       0.00      28.89       0.00      78.79      78.79        0.32     0.07   0.734
  S09                      107.39       0.00       0.00      16.04      81.40      10.51      91.92        1.47     0.29   0.856
  S10                      107.38       0.00       0.00      25.76       7.41      74.39      81.80        0.49     0.11   0.762
  S11                      107.39       0.00       0.00      22.91      18.51      66.15      84.67        0.34     0.08   0.788
  S12                      107.39       0.00       0.00      28.47       0.00      79.21      79.21        0.32     0.07   0.738
  S13                      107.38       0.00       0.00      24.37      15.47      67.82      83.29        0.50     0.11   0.776
  S14                      107.38       0.00       0.00      24.45      15.17      68.05      83.21        0.58     0.13   0.775
  S15                      107.38       0.00       0.00      21.76      25.24      60.56      85.81        1.29     0.28   0.799
  S16                      107.38       0.00       0.00      69.37       4.94      32.45      37.40        1.38     0.42   0.348
  S17                      107.38       0.00       0.00      42.18      42.54      22.55      65.09        0.85     0.20   0.606
  S18                      107.39      17.90       0.00      41.52      54.00      29.79      83.79        4.86     1.09   0.669
  S19                      107.38       0.00       0.00      14.66      52.41      40.80      93.21        1.30     0.27   0.868
  S20                      107.38     555.58       0.00      15.01     334.38     314.62     649.00        1.95     0.44   0.979
  S21                      107.39     177.00       0.00       7.24     249.95      27.78     277.73        3.06     0.64   0.977
  S22                      107.38      32.55       0.00      28.99      80.56      30.56     111.12        1.67     0.39   0.794
  S23                      107.39       0.00       0.00      62.99      10.21      34.17      44.38        0.49     0.14   0.413
  S24                      107.39       0.00       0.00      55.26      27.62      24.29      51.91        0.93     0.23   0.483
  S25                      107.39       0.00       0.00      28.47       0.00      79.22      79.22        0.08     0.02   0.738
  S26                      107.39       0.00       0.00      45.32      35.99      26.19      62.18        0.68     0.17   0.579
  S27                      107.38       0.00       0.00       1.48       0.00       0.00       0.00        0.00     0.00   0.000
  S28                      107.38       0.00       0.00       1.75      71.53      33.69     105.22        2.10     0.39   0.980
  S29                      107.39       0.00       0.00      68.67      22.48      16.15      38.64        0.08     0.02   0.360
  S30                      107.39       0.00       0.00       1.11      84.36      22.43     106.79        0.96     0.18   0.994
  S31                      107.38       0.00       0.00       0.77      91.97      15.18     107.15        0.75     0.14   0.998
  S32                      107.39     121.36       0.00      29.91     112.82      86.33     199.15        3.39     0.73   0.871
  S33                      107.39      93.76       0.00      48.96      37.47     114.74     152.21        1.22     0.27   0.757
  S34                      107.39       0.00       0.00      11.91      89.06       6.91      95.97        0.77     0.15   0.894
  S35                      107.38       0.00       0.00       1.06     105.38       3.24     107.00        1.50     0.28   0.996
  S36                      107.39       0.00       0.00      80.49       0.00      26.19      26.19        0.05     0.02   0.244
  S37                      107.38       0.00       0.00      42.01      36.98      28.49      65.47        1.37     0.33   0.610
  S38                      107.38       0.00       0.00      58.88       0.00      48.51      48.51        0.34     0.10   0.452
  S39                      107.39       0.00       0.00      62.18      10.65      34.25      44.89        0.04     0.01   0.418
  S40                      107.39       0.00       0.00       0.99      86.69      20.32     107.01        0.96     0.18   0.997
  S41                      107.39       0.00       0.00      74.27       0.00      32.82      32.82        0.53     0.17   0.306
  S42                      107.38       0.00       0.00      36.79      37.49      33.22      70.71        1.06     0.25   0.659
  S43                      107.39       0.00       0.00      33.23       0.00      73.66      73.66        0.15     0.04   0.686
  S44                      107.38       0.00       0.00      23.47      53.35      30.81      84.16        0.50     0.11   0.784
  S45                      107.39       0.00       0.00      71.16       0.00      35.92      35.92        0.04     0.01   0.334
  S46                      107.38       0.00       0.00      23.01      55.80      28.91      84.72        0.85     0.18   0.789
  S47                      107.39       0.00       0.00      62.39      15.28      29.31      44.59        0.36     0.10   0.415
  S48                      107.39       0.00       0.00       0.00     108.10       0.00     108.10        0.86     0.16   1.007
  S49                      107.39       0.00       0.00      72.27      20.24      14.99      35.23        0.28     0.08   0.328
  S50                      107.38       0.00       0.00      77.34      10.10      20.03      30.13        0.30     0.10   0.281
  S51                      107.39     142.67       0.00      29.77      86.23     134.22     220.46        5.51     1.17   0.882
  S52                      107.39       0.00       0.00      57.72      33.70      15.89      49.59        2.48     0.62   0.462
  S53                      107.39       0.00       0.00       3.16      39.33      65.42     104.76        0.42     0.08   0.976
  S54                      107.38       0.00       0.00      73.31      16.56      17.32      33.88        0.68     0.20   0.316
  S55                      107.38       0.00       0.00       4.09      19.17      84.58     103.74        0.31     0.06   0.966
  S56                      107.39      23.33       0.00      80.72      21.87      28.23      50.10        2.05     0.56   0.383
  S57                      107.38       0.00       0.00       1.32      79.23      27.45     106.68        0.32     0.06   0.993
  S58                      107.38       0.00       0.00      60.91      29.60      16.89      46.49        0.33     0.08   0.433
  S59                      107.39       0.00       0.00      66.64      12.17      28.75      40.91        0.78     0.24   0.381
  S60                      107.38      67.76       0.00       3.05      73.00      99.11     172.11        1.72     0.37   0.983
  S61                      107.39       6.49       0.00       1.80      73.61      38.94     112.55        0.45     0.09   0.988
  S62                      107.39       0.00       0.00      81.37       0.00      25.94      25.94        0.03     0.01   0.242
  S63                      107.38       0.00       0.00      69.61       0.00      37.52      37.52        0.19     0.06   0.349
  S64                      107.39       0.00       0.00      51.27       0.00      56.26      56.26        0.06     0.02   0.524
  S65                      107.39       0.00       0.00      29.74       0.00      77.79      77.79        0.08     0.02   0.724
  
  
  ******************
  Node Depth Summary
  ******************
  
  ---------------------------------------------------------------------------------
                                 Average  Maximum  Maximum  Time of Max    Reported
                                   Depth    Depth      HGL   Occurrence   Max Depth
  Node                 Type       Meters   Meters   Meters  days hr:min      Meters
  ---------------------------------------------------------------------------------
  J1                   JUNCTION     0.91     1.00     1.00     0  00:30        1.00
  J2                   JUNCTION     0.91     1.00     1.00     0  00:30        1.00
  J3                   JUNCTION     0.89     1.00     1.00     0  00:34        1.00
  J4                   JUNCTION     0.89     1.00     1.00     0  00:36        1.00
  J5                   JUNCTION     0.89     1.00     1.00     0  00:36        1.00
  J6                   JUNCTION     0.87     1.00     1.00     0  00:45        1.00
  J7                   JUNCTION     0.85     1.00     1.00     0  00:52        1.00
  J8                   JUNCTION     0.84     1.00     1.00     0  01:01        1.00
  J9                   JUNCTION     0.85     1.00     1.00     0  01:01        1.00
  J10                  JUNCTION     0.86     1.00     1.00     0  01:02        1.00
  J11                  JUNCTION     0.89     1.00     1.00     0  00:36        1.00
  J12                  JUNCTION     0.88     1.00     1.00     0  00:36        1.00
  J13                  JUNCTION     0.89     1.00     1.00     0  00:32        1.00
  J14                  JUNCTION     0.88     1.00     1.00     0  00:35        1.00
  J15                  JUNCTION     0.87     1.00     1.00     0  00:35        1.00
  J16                  JUNCTION     0.85     1.00     1.00     0  00:40        1.00
  J17                  JUNCTION     0.83     1.00     1.00     0  00:41        1.00
  J18                  JUNCTION     0.83     1.00     1.00     0  00:41        1.00
  J19                  JUNCTION     0.84     1.00     1.00     0  00:41        1.00
  J20                  JUNCTION     0.83     1.00     1.00     0  00:43        1.00
  J21                  JUNCTION     0.82     1.00     1.00     0  00:45        1.00
  J22                  JUNCTION     0.83     1.00     1.00     0  00:47        1.00
  J23                  JUNCTION     0.77     1.00     1.00     0  01:17        1.00
  J24                  JUNCTION     0.74     1.00     1.00     0  01:19        1.00
  J25                  JUNCTION     0.71     1.00     1.00     0  01:10        1.00
  J26                  JUNCTION     0.71     1.00     1.00     0  01:10        1.00
  J27                  JUNCTION     0.71     1.00     1.00     0  01:08        1.00
  J28                  JUNCTION     0.71     1.00     1.00     0  01:08        1.00
  J29                  JUNCTION     0.68     1.00     1.00     0  01:10        1.00
  J30                  JUNCTION     0.61     0.90     0.90     0  01:18        0.90
  J31                  JUNCTION     0.53     0.78     0.78     0  01:17        0.77
  J32                  JUNCTION     0.91     1.00     1.00     0  00:28        1.00
  J33                  JUNCTION     0.91     1.00     1.00     0  00:29        1.00
  J34                  JUNCTION     0.90     1.00     1.00     0  00:36        1.00
  J35                  JUNCTION     0.90     1.00     1.00     0  00:42        1.00
  J36                  JUNCTION     0.88     1.00     1.00     0  00:45        1.00
  J37                  JUNCTION     0.87     1.00     1.00     0  00:49        1.00
  J38                  JUNCTION     0.87     1.00     1.00     0  00:50        1.00
  J39                  JUNCTION     0.86     1.00     1.00     0  00:57        1.00
  J40                  JUNCTION     0.86     1.00     1.00     0  00:58        1.00
  J41                  JUNCTION     0.85     1.00     1.00     0  00:57        1.00
  J42                  JUNCTION     0.83     1.00     1.00     0  00:58        1.00
  J43                  JUNCTION     0.81     1.00     1.00     0  00:58        1.00
  J44                  JUNCTION     0.81     1.00     1.00     0  00:58        1.00
  J45                  JUNCTION     0.83     1.00     1.00     0  00:59        1.00
  J46                  JUNCTION     0.86     1.00     1.00     0  00:59        1.00
  J47                  JUNCTION     0.80     1.00     1.00     0  01:11        1.00
  J48                  JUNCTION     0.79     1.00     1.00     0  01:13        1.00
  J49                  JUNCTION     0.79     1.00     1.00     0  01:13        1.00
  J50                  JUNCTION     0.78     1.00     1.00     0  01:13        1.00
  J51                  JUNCTION     0.79     1.00     1.00     0  01:14        1.00
  J52                  JUNCTION     0.79     1.00     1.00     0  01:14        1.00
  J53                  JUNCTION     0.78     1.00     1.00     0  01:15        1.00
  J54                  JUNCTION     0.78     1.00     1.00     0  01:15        1.00
  J55                  JUNCTION     0.77     1.00     1.00     0  01:15        1.00
  J56                  JUNCTION     0.76     1.00     1.00     0  01:15        1.00
  J57                  JUNCTION     0.77     1.00     1.00     0  01:16        1.00
  J58                  JUNCTION     0.77     1.00     1.00     0  01:16        1.00
  J59                  JUNCTION     0.75     1.00     1.00     0  01:16        1.00
  J60                  JUNCTION     0.73     1.00     1.00     0  01:17        1.00
  J61                  JUNCTION     0.73     1.00     1.00     0  01:17        1.00
  J62                  JUNCTION     0.73     1.00     1.00     0  01:18        1.00
  J63                  JUNCTION     0.75     1.00     1.00     0  01:18        1.00
  O1                   OUTFALL      0.27     0.41     0.41     0  01:17        0.41
  
  
  *******************
  Node Inflow Summary
  *******************
  
  -------------------------------------------------------------------------------------------------
                                  Maximum  Maximum                  Lateral       Total        Flow
                                  Lateral    Total  Time of Max      Inflow      Inflow     Balance
                                   Inflow   Inflow   Occurrence      Volume      Volume       Error
  Node                 Type           CMS      CMS  days hr:min    10^6 ltr    10^6 ltr     Percent
  -------------------------------------------------------------------------------------------------
  J1                   JUNCTION     0.480    0.480     0  01:35        1.84        1.88       8.318
  J2                   JUNCTION     1.332    1.351     0  01:35        5.28        5.56       5.022
  J3                   JUNCTION     0.074    0.592     0  00:25       0.315        1.34      27.215
  J4                   JUNCTION     0.112    0.569     0  00:32       0.491        1.39      26.348
  J5                   JUNCTION     0.663    0.840     0  00:35        2.99         3.7       7.680
  J6                   JUNCTION     0.000    0.747     0  00:36           0        1.41      24.211
  J7                   JUNCTION     0.000    0.647     0  00:39           0        1.08      35.418
  J8                   JUNCTION     0.000    0.691     0  00:40           0       0.893      49.068
  J9                   JUNCTION     0.000    0.825     0  00:45           0        2.36      21.432
  J10                  JUNCTION     0.000    0.715     0  00:36           0        2.39      13.297
  J11                  JUNCTION     0.642    0.805     0  00:34        3.06        4.61       6.071
  J12                  JUNCTION     0.000    0.441     0  00:33           0        1.95      17.235
  J13                  JUNCTION     1.484    1.484     0  01:35        6.97        8.02       3.166
  J14                  JUNCTION     0.000    0.479     0  00:17           0        2.15      15.275
  J15                  JUNCTION     0.732    0.831     0  00:35        3.39        5.23       5.125
  J16                  JUNCTION     0.000    0.733     0  00:36           0        2.36      12.628
  J17                  JUNCTION     0.000    0.547     0  00:33           0        1.97      16.441
  J18                  JUNCTION     0.000    0.648     0  00:37           0        1.96      15.593
  J19                  JUNCTION     0.622    0.638     0  01:35        2.48        4.16       6.021
  J20                  JUNCTION     0.079    0.359     0  00:42       0.419        2.55      11.260
  J21                  JUNCTION     0.000    0.399     0  00:23           0        2.35      12.769
  J22                  JUNCTION     1.166    1.180     0  01:35        5.51        7.27       3.338
  J23                  JUNCTION     0.000    0.857     0  00:49           0        5.23       7.273
  J24                  JUNCTION     0.000    0.355     0  00:50           0        3.71       7.066
  J25                  JUNCTION     0.000    0.336     0  00:46           0        3.62       7.332
  J26                  JUNCTION     0.000    0.261     0  00:50           0        3.83       6.390
  J27                  JUNCTION     0.000    0.348     0  00:54           0        4.24       5.416
  J28                  JUNCTION     0.794    0.794     0  01:35        2.83        6.18       3.285
  J29                  JUNCTION     0.524    0.674     0  01:05        2.36        6.41       3.017
  J30                  JUNCTION     0.000    0.626     0  01:08           0        6.16       2.968
  J31                  JUNCTION     0.000    0.576     0  01:11           0        5.98       2.685
  J32                  JUNCTION     2.597    2.597     0  01:35        9.58        9.58       1.392
  J33                  JUNCTION     0.931    0.960     0  01:35        4.16        4.85       6.033
  J34                  JUNCTION     0.000    0.652     0  00:30           0        1.13      36.121
  J35                  JUNCTION     0.406    0.809     0  00:33        1.97        2.79      10.660
  J36                  JUNCTION     0.016    0.692     0  00:35      0.0563        1.32      28.062
  J37                  JUNCTION     0.149    0.663     0  00:37       0.656        1.62      21.212
  J38                  JUNCTION     0.551    0.676     0  00:41        1.97        2.93      10.426
  J39                  JUNCTION     0.000    0.573     0  00:45           0        1.29      29.211
  J40                  JUNCTION     0.283    0.690     0  00:48        1.29        2.22      14.172
  J41                  JUNCTION     0.197    0.710     0  00:51       0.847        2.02      15.579
  J42                  JUNCTION     0.000    0.612     0  00:53           0        1.28      27.787
  J43                  JUNCTION     0.000    0.437     0  00:54           0        1.28      28.329
  J44                  JUNCTION     0.000    0.507     0  00:54           0        1.19      31.364
  J45                  JUNCTION     0.000    0.659     0  00:52           0        1.62      20.347
  J46                  JUNCTION     0.268    0.764     0  00:48        1.31        2.61      11.204
  J47                  JUNCTION     0.250    0.250     0  01:35        1.01        1.02      13.569
  J48                  JUNCTION     0.000    0.177     0  01:09           0       0.662      67.390
  J49                  JUNCTION     0.168    0.224     0  01:11       0.684       0.997      33.687
  J50                  JUNCTION     0.052    0.178     0  01:13         0.2       0.827      47.115
  J51                  JUNCTION     0.109    0.190     0  01:14       0.505        1.01      33.660
  J52                  JUNCTION     0.329    0.391     0  01:14        1.38        1.85      15.580
  J53                  JUNCTION     0.000    0.281     0  01:14           0        1.06      33.275
  J54                  JUNCTION     0.296    0.418     0  01:13        1.22        1.95      14.593
  J55                  JUNCTION     0.169    0.405     0  01:12       0.526        1.78      17.199
  J56                  JUNCTION     0.000    0.275     0  01:08           0        1.27      25.945
  J57                  JUNCTION     0.177    0.279     0  01:06       0.639        1.69      17.469
  J58                  JUNCTION     0.159    0.323     0  01:05       0.865        1.83      15.357
  J59                  JUNCTION     0.000    0.219     0  00:59           0        1.37      22.813
  J60                  JUNCTION     0.000    0.242     0  01:13           0         1.4      22.678
  J61                  JUNCTION     0.098    0.362     0  01:07       0.302        1.79      15.990
  J62                  JUNCTION     0.000    0.416     0  01:05           0        1.88      15.926
  J63                  JUNCTION     0.000    0.499     0  01:01           0        2.26      12.593
  O1                   OUTFALL      0.000    0.540     0  01:17           0        5.82       0.000
  
  
  **********************
  Node Surcharge Summary
  **********************
  
  Surcharging occurs when water rises above the top of the highest conduit.
  ---------------------------------------------------------------------
                                               Max. Height   Min. Depth
                                   Hours       Above Crown    Below Rim
  Node                 Type      Surcharged         Meters       Meters
  ---------------------------------------------------------------------
  J1                   JUNCTION        1.88          0.000        0.000
  J2                   JUNCTION        1.84          0.000        0.000
  J3                   JUNCTION        1.78          0.000        0.000
  J4                   JUNCTION        1.77          0.000        0.000
  J5                   JUNCTION        1.73          0.000        0.000
  J6                   JUNCTION        1.64          0.000        0.000
  J7                   JUNCTION        1.59          0.000        0.000
  J8                   JUNCTION        1.45          0.000        0.000
  J9                   JUNCTION        1.42          0.000        0.000
  J10                  JUNCTION        1.36          0.000        0.000
  J11                  JUNCTION        1.63          0.000        0.000
  J12                  JUNCTION        1.62          0.000        0.000
  J13                  JUNCTION        1.76          0.000        0.000
  J14                  JUNCTION        1.64          0.000        0.000
  J15                  JUNCTION        1.61          0.000        0.000
  J16                  JUNCTION        1.49          0.000        0.000
  J17                  JUNCTION        1.38          0.000        0.000
  J18                  JUNCTION        1.33          0.000        0.000
  J19                  JUNCTION        1.26          0.000        0.000
  J20                  JUNCTION        1.27          0.000        0.000
  J21                  JUNCTION        1.28          0.000        0.000
  J22                  JUNCTION        1.22          0.000        0.000
  J23                  JUNCTION        0.62          0.000        0.000
  J24                  JUNCTION        0.52          0.000        0.000
  J25                  JUNCTION        0.55          0.000        0.000
  J26                  JUNCTION        0.55          0.000        0.000
  J27                  JUNCTION        0.63          0.000        0.000
  J28                  JUNCTION        0.63          0.000        0.000
  J29                  JUNCTION        0.45          0.000        0.000
  J32                  JUNCTION        2.57          0.000        0.000
  J33                  JUNCTION        2.54          0.000        0.000
  J34                  JUNCTION        2.19          0.000        0.000
  J35                  JUNCTION        2.04          0.000        0.000
  J36                  JUNCTION        1.99          0.000        0.000
  J37                  JUNCTION        1.93          0.000        0.000
  J38                  JUNCTION        1.98          0.000        0.000
  J39                  JUNCTION        1.89          0.000        0.000
  J40                  JUNCTION        1.84          0.000        0.000
  J41                  JUNCTION        1.78          0.000        0.000
  J42                  JUNCTION        1.80          0.000        0.000
  J43                  JUNCTION        1.79          0.000        0.000
  J44                  JUNCTION        1.57          0.000        0.000
  J45                  JUNCTION        1.49          0.000        0.000
  J46                  JUNCTION        1.41          0.000        0.000
  J47                  JUNCTION        0.95          0.000        0.000
  J48                  JUNCTION        0.96          0.000        0.000
  J49                  JUNCTION        0.96          0.000        0.000
  J50                  JUNCTION        1.06          0.000        0.000
  J51                  JUNCTION        1.10          0.000        0.000
  J52                  JUNCTION        1.13          0.000        0.000
  J53                  JUNCTION        1.10          0.000        0.000
  J54                  JUNCTION        1.07          0.000        0.000
  J55                  JUNCTION        1.05          0.000        0.000
  J56                  JUNCTION        1.00          0.000        0.000
  J57                  JUNCTION        0.97          0.000        0.000
  J58                  JUNCTION        0.86          0.000        0.000
  J59                  JUNCTION        0.83          0.000        0.000
  J60                  JUNCTION        0.76          0.000        0.000
  J61                  JUNCTION        0.69          0.000        0.000
  J62                  JUNCTION        0.64          0.000        0.000
  J63                  JUNCTION        0.60          0.000        0.000
  
  
  *********************
  Node Flooding Summary
  *********************
  
  Flooding refers to all water that overflows a node, whether it ponds or not.
  --------------------------------------------------------------------------
                                                             Total   Maximum
                                 Maximum   Time of Max       Flood    Ponded
                        Hours       Rate    Occurrence      Volume     Depth
  Node                 Flooded       CMS   days hr:min    10^6 ltr    Meters
  --------------------------------------------------------------------------
  J1                      1.87     0.459      0  01:35       1.457     0.000
  J2                      1.84     1.317      0  01:35       4.227     0.000
  J3                      1.77     0.101      0  00:34       0.275     0.000
  J4                      1.74     0.111      0  01:35       0.380     0.000
  J5                      1.49     0.655      0  01:35       1.906     0.000
  J6                      1.50     0.166      0  00:45       0.048     0.000
  J7                      1.59     0.072      0  00:52       0.054     0.000
  J8                      1.45     0.023      0  01:01       0.038     0.000
  J9                      1.42     0.026      0  01:16       0.103     0.000
  J10                     1.36     0.024      0  01:02       0.016     0.000
  J11                     1.63     0.625      0  01:35       1.847     0.000
  J12                     1.62     0.024      0  00:36       0.013     0.000
  J13                     1.76     1.417      0  01:35       4.719     0.000
  J14                     1.64     0.079      0  00:35       0.021     0.000
  J15                     1.61     0.728      0  01:35       2.596     0.000
  J16                     1.49     0.364      0  00:40       0.196     0.000
  J17                     1.37     0.048      0  00:41       0.070     0.000
  J18                     1.32     0.063      0  00:41       0.027     0.000
  J19                     1.26     0.602      0  01:35       1.614     0.000
  J20                     1.27     0.262      0  00:43       0.302     0.000
  J21                     1.28     0.264      0  00:45       0.166     0.000
  J22                     1.22     1.100      0  01:35       2.570     0.000
  J23                     0.62     0.049      0  01:27       0.088     0.000
  J24                     0.52     0.005      0  01:19       0.004     0.000
  J25                     0.54     0.045      0  01:10       0.005     0.000
  J26                     0.55     0.019      0  01:10       0.009     0.000
  J27                     0.63     0.073      0  01:08       0.018     0.000
  J28                     0.63     0.672      0  01:35       0.943     0.000
  J29                     0.45     0.047      0  01:35       0.061     0.000
  J32                     2.57     2.555      0  01:35       8.758     0.000
  J33                     2.54     0.926      0  01:35       3.508     0.000
  J34                     2.01     0.052      0  00:36       0.008     0.000
  J35                     1.61     0.401      0  01:35       1.189     0.000
  J36                     1.53     0.151      0  00:46       0.087     0.000
  J37                     1.34     0.145      0  01:35       0.373     0.000
  J38                     1.97     0.544      0  01:35       1.438     0.000
  J39                     1.89     0.105      0  00:57       0.069     0.000
  J40                     1.83     0.279      0  01:35       0.682     0.000
  J41                     1.76     0.193      0  01:35       0.457     0.000
  J42                     1.80     0.107      0  00:58       0.029     0.000
  J43                     1.79     0.298      0  00:58       0.534     0.000
  J44                     1.57     0.176      0  00:58       0.096     0.000
  J45                     1.49     0.223      0  00:59       0.086     0.000
  J46                     1.14     0.264      0  01:35       0.568     0.000
  J47                     0.94     0.188      0  01:35       0.251     0.000
  J48                     0.96     0.102      0  01:13       0.081     0.000
  J49                     0.96     0.152      0  01:35       0.230     0.000
  J50                     1.06     0.093      0  01:13       0.159     0.000
  J51                     1.10     0.103      0  01:35       0.147     0.000
  J52                     1.13     0.303      0  01:35       0.497     0.000
  J53                     1.10     0.131      0  01:15       0.073     0.000
  J54                     1.06     0.279      0  01:35       0.392     0.000
  J55                     1.05     0.170      0  01:35       0.363     0.000
  J56                     1.00     0.112      0  01:15       0.062     0.000
  J57                     0.97     0.205      0  01:16       0.346     0.000
  J58                     0.86     0.197      0  01:16       0.262     0.000
  J59                     0.83     0.101      0  01:16       0.185     0.000
  J60                     0.76     0.171      0  01:17       0.132     0.000
  J61                     0.69     0.116      0  01:17       0.157     0.000
  J62                     0.64     0.044      0  01:18       0.019     0.000
  J63                     0.60     0.025      0  01:18       0.010     0.000
  
  
  ***********************
  Outfall Loading Summary
  ***********************
  
  -----------------------------------------------------------
                         Flow       Avg       Max       Total
                         Freq      Flow      Flow      Volume
  Outfall Node           Pcnt       CMS       CMS    10^6 ltr
  -----------------------------------------------------------
  O1                    93.70     0.287     0.540       5.822
  -----------------------------------------------------------
  System                93.70     0.287     0.540       5.822
  
  
  ********************
  Link Flow Summary
  ********************
  
  -----------------------------------------------------------------------------
                                 Maximum  Time of Max   Maximum    Max/    Max/
                                  |Flow|   Occurrence   |Veloc|    Full    Full
  Link                 Type          CMS  days hr:min     m/sec    Flow   Depth
  -----------------------------------------------------------------------------
  C1                   CONDUIT     0.190     0  00:20      0.33    6.97    1.00
  C2                   CONDUIT     0.548     0  00:25      1.01   20.13    1.00
  C3                   CONDUIT     0.488     0  00:32      0.65   17.94    1.00
  C4                   CONDUIT     0.377     0  00:30      0.72   13.84    1.00
  C5                   CONDUIT     0.747     0  00:36      1.04   27.46    1.00
  C6                   CONDUIT     0.647     0  00:39      1.06   23.77    1.00
  C7                   CONDUIT     0.397     0  00:41      0.75   14.57    1.00
  C8                   CONDUIT     0.311     0  00:39      0.77   11.42    1.00
  C9                   CONDUIT     0.649     0  00:40      1.06   23.84    1.00
  C10                  CONDUIT     0.715     0  00:36      1.05   26.27    1.00
  C11                  CONDUIT     0.360     0  00:34      0.47   13.25    1.00
  C12                  CONDUIT     0.441     0  00:33      1.01   16.20    1.00
  C13                  CONDUIT     0.465     0  00:33      1.06   17.10    1.00
  C14                  CONDUIT     0.333     0  00:31      0.52   12.24    1.00
  C15                  CONDUIT     0.733     0  00:36      1.01   26.94    1.00
  C16                  CONDUIT     0.498     0  00:38      0.86   18.31    1.00
  C17                  CONDUIT     0.312     0  00:38      0.56   11.47    1.00
  C18                  CONDUIT     0.382     0  00:36      0.73   14.04    1.00
  C19                  CONDUIT     0.211     0  00:43      0.62    7.75    1.00
  C20                  CONDUIT     0.204     0  00:39      0.46    7.49    1.00
  C21                  CONDUIT     0.296     0  00:25      0.81   10.89    1.00
  C22                  CONDUIT     0.857     0  00:49      1.23   31.51    1.00
  C23                  CONDUIT     0.355     0  00:50      0.72   13.05    1.00
  C24                  CONDUIT     0.246     0  02:30      0.62    9.04    1.00
  C25                  CONDUIT     0.253     0  02:32      0.56    9.29    1.00
  C26                  CONDUIT     0.261     0  02:25      0.70    9.61    1.00
  C27                  CONDUIT     0.348     0  00:54      0.70   12.78    1.00
  C28                  CONDUIT     0.294     0  02:12      0.43   10.80    1.00
  C29                  CONDUIT     0.626     0  01:08      0.83   23.00    0.95
  C30                  CONDUIT     0.576     0  01:11      0.84   21.15    0.84
  C31                  CONDUIT     0.540     0  01:17      1.11   19.83    0.59
  C32                  CONDUIT     0.325     0  00:28      0.47   11.96    1.00
  C33                  CONDUIT     0.652     0  00:30      0.86   23.95    1.00
  C34                  CONDUIT     0.471     0  00:33      0.67   17.33    1.00
  C35                  CONDUIT     0.684     0  00:35      0.98   25.15    1.00
  C36                  CONDUIT     0.544     0  00:37      0.82   20.00    1.00
  C37                  CONDUIT     0.465     0  00:40      0.69   17.10    1.00
  C38                  CONDUIT     0.573     0  00:45      0.79   21.07    1.00
  C39                  CONDUIT     0.440     0  00:47      0.62   16.16    1.00
  C40                  CONDUIT     0.573     0  00:51      0.81   21.07    1.00
  C41                  CONDUIT     0.612     0  00:53      0.94   22.48    1.00
  C42                  CONDUIT     0.349     0  00:54      0.60   12.83    1.00
  C43                  CONDUIT     0.109     0  00:58      0.27    4.01    1.00
  C44                  CONDUIT     0.507     0  00:54      0.84   18.61    1.00
  C45                  CONDUIT     0.659     0  00:52      0.96   24.20    1.00
  C46                  CONDUIT     0.514     0  00:48      0.72   18.88    1.00
  C47                  CONDUIT     0.177     0  01:09      0.58    6.52    1.00
  C48                  CONDUIT     0.082     0  01:11      0.30    3.01    1.00
  C49                  CONDUIT     0.136     0  01:13      0.35    5.00    1.00
  C50                  CONDUIT     0.087     0  00:32      0.46    3.20    1.00
  C51                  CONDUIT     0.105     0  01:14      0.24    3.86    1.00
  C52                  CONDUIT     0.281     0  01:14      0.44   10.32    1.00
  C53                  CONDUIT     0.150     0  01:13      0.44    5.50    1.00
  C54                  CONDUIT     0.297     0  01:11      0.47   10.93    1.00
  C55                  CONDUIT     0.275     0  01:08      0.44   10.12    1.00
  C56                  CONDUIT     0.160     0  01:06      0.54    5.86    1.00
  C57                  CONDUIT     0.164     0  01:05      0.38    6.03    1.00
  C58                  CONDUIT     0.219     0  00:59      0.56    8.05    1.00
  C59                  CONDUIT     0.109     0  01:13      0.47    4.01    1.00
  C60                  CONDUIT     0.242     0  01:13      0.37    8.88    1.00
  C61                  CONDUIT     0.299     0  01:06      0.52   10.98    1.00
  C62                  CONDUIT     0.416     0  01:05      0.71   15.29    1.00
  C63                  CONDUIT     0.499     0  01:01      0.76   18.35    1.00
  
  
  ***************************
  Flow Classification Summary
  ***************************
  
  -------------------------------------------------------------------------------------
                      Adjusted    ---------- Fraction of Time in Flow Class ---------- 
                       /Actual         Up    Down  Sub   Sup   Up    Down  Norm  Inlet 
  Conduit               Length    Dry  Dry   Dry   Crit  Crit  Crit  Crit  Ltd   Ctrl  
  -------------------------------------------------------------------------------------
  C1                      1.00   0.01  0.00  0.00  0.99  0.00  0.00  0.00  0.00  0.00
  C2                      1.00   0.01  0.00  0.00  0.99  0.00  0.00  0.00  0.00  0.00
  C3                      1.00   0.02  0.00  0.00  0.98  0.00  0.00  0.00  0.00  0.00
  C4                      1.00   0.01  0.00  0.00  0.99  0.00  0.00  0.00  0.01  0.00
  C5                      1.00   0.01  0.00  0.00  0.99  0.00  0.00  0.00  0.02  0.00
  C6                      1.00   0.02  0.00  0.00  0.98  0.00  0.00  0.00  0.02  0.00
  C7                      1.00   0.03  0.00  0.00  0.97  0.00  0.00  0.00  0.03  0.00
  C8                      1.00   0.02  0.00  0.00  0.98  0.00  0.00  0.00  0.03  0.00
  C9                      1.00   0.02  0.00  0.00  0.98  0.00  0.00  0.00  0.03  0.00
  C10                     1.00   0.01  0.00  0.00  0.99  0.00  0.00  0.00  0.03  0.00
  C11                     1.00   0.01  0.00  0.00  0.99  0.00  0.00  0.00  0.03  0.00
  C12                     1.00   0.01  0.00  0.00  0.99  0.00  0.00  0.00  0.03  0.00
  C13                     1.00   0.01  0.00  0.00  0.99  0.00  0.00  0.00  0.03  0.00
  C14                     1.00   0.01  0.00  0.00  0.99  0.00  0.00  0.00  0.03  0.00
  C15                     1.00   0.01  0.00  0.00  0.99  0.00  0.00  0.00  0.03  0.00
  C16                     1.00   0.02  0.00  0.00  0.98  0.00  0.00  0.00  0.03  0.00
  C17                     1.00   0.02  0.00  0.00  0.98  0.00  0.00  0.00  0.03  0.00
  C18                     1.00   0.01  0.00  0.00  0.99  0.00  0.00  0.00  0.02  0.00
  C19                     1.00   0.01  0.00  0.00  0.99  0.00  0.00  0.00  0.02  0.00
  C20                     1.00   0.01  0.00  0.00  0.99  0.00  0.00  0.00  0.02  0.00
  C21                     1.00   0.01  0.00  0.00  0.99  0.00  0.00  0.00  0.01  0.00
  C22                     1.00   0.01  0.00  0.00  0.99  0.00  0.00  0.00  0.01  0.00
  C23                     1.00   0.02  0.00  0.00  0.98  0.00  0.00  0.00  0.00  0.00
  C24                     1.00   0.03  0.00  0.00  0.97  0.00  0.00  0.00  0.01  0.00
  C25                     1.00   0.03  0.00  0.00  0.97  0.00  0.00  0.00  0.00  0.00
  C26                     1.00   0.02  0.00  0.00  0.98  0.00  0.00  0.00  0.00  0.00
  C27                     1.00   0.01  0.00  0.00  0.99  0.00  0.00  0.00  0.00  0.00
  C28                     1.00   0.01  0.00  0.00  0.99  0.00  0.00  0.00  0.00  0.00
  C29                     1.00   0.01  0.00  0.00  0.99  0.00  0.00  0.00  0.00  0.00
  C30                     1.00   0.02  0.00  0.00  0.98  0.00  0.00  0.00  0.00  0.00
  C31                     1.00   0.03  0.00  0.00  0.97  0.00  0.00  0.00  0.00  0.00
  C32                     1.00   0.01  0.00  0.00  0.99  0.00  0.00  0.00  0.00  0.00
  C33                     1.00   0.01  0.00  0.00  0.99  0.00  0.00  0.00  0.00  0.00
  C34                     1.00   0.01  0.00  0.00  0.99  0.00  0.00  0.00  0.00  0.00
  C35                     1.00   0.01  0.00  0.00  0.99  0.00  0.00  0.00  0.00  0.00
  C36                     1.00   0.01  0.00  0.00  0.99  0.00  0.00  0.00  0.01  0.00
  C37                     1.00   0.01  0.00  0.00  0.99  0.00  0.00  0.00  0.01  0.00
  C38                     1.00   0.01  0.00  0.00  0.99  0.00  0.00  0.00  0.03  0.00
  C39                     1.00   0.01  0.00  0.00  0.99  0.00  0.00  0.00  0.03  0.00
  C40                     1.00   0.01  0.00  0.00  0.99  0.00  0.00  0.00  0.03  0.00
  C41                     1.00   0.01  0.00  0.00  0.99  0.00  0.00  0.00  0.03  0.00
  C42                     1.00   0.02  0.00  0.00  0.98  0.00  0.00  0.00  0.05  0.00
  C43                     1.00   0.03  0.00  0.00  0.97  0.00  0.00  0.00  0.05  0.00
  C44                     1.00   0.02  0.00  0.00  0.98  0.00  0.00  0.00  0.04  0.00
  C45                     1.00   0.01  0.00  0.00  0.99  0.00  0.00  0.00  0.04  0.00
  C46                     1.00   0.01  0.00  0.00  0.99  0.00  0.00  0.00  0.04  0.00
  C47                     1.00   0.01  0.00  0.00  0.99  0.00  0.00  0.00  0.01  0.00
  C48                     1.00   0.01  0.00  0.00  0.99  0.00  0.00  0.00  0.01  0.00
  C49                     1.00   0.01  0.00  0.00  0.99  0.00  0.00  0.00  0.01  0.00
  C50                     1.00   0.01  0.00  0.00  0.99  0.00  0.00  0.00  0.01  0.00
  C51                     1.00   0.01  0.00  0.00  0.99  0.00  0.00  0.00  0.01  0.00
  C52                     1.00   0.01  0.00  0.00  0.99  0.00  0.00  0.00  0.04  0.00
  C53                     1.00   0.01  0.00  0.00  0.99  0.00  0.00  0.00  0.05  0.00
  C54                     1.00   0.01  0.00  0.00  0.99  0.00  0.00  0.00  0.07  0.00
  C55                     1.00   0.02  0.00  0.00  0.98  0.00  0.00  0.00  0.07  0.00
  C56                     1.00   0.01  0.00  0.00  0.99  0.00  0.00  0.00  0.05  0.00
  C57                     1.00   0.01  0.00  0.00  0.99  0.00  0.00  0.00  0.05  0.00
  C58                     1.00   0.01  0.00  0.00  0.99  0.00  0.00  0.00  0.06  0.00
  C59                     1.00   0.02  0.00  0.00  0.98  0.00  0.00  0.00  0.05  0.00
  C60                     1.00   0.01  0.00  0.00  0.99  0.00  0.00  0.00  0.05  0.00
  C61                     1.00   0.01  0.00  0.00  0.99  0.00  0.00  0.00  0.04  0.00
  C62                     1.00   0.02  0.00  0.00  0.98  0.00  0.00  0.00  0.04  0.00
  C63                     1.00   0.02  0.00  0.00  0.98  0.00  0.00  0.00  0.04  0.00
  
  
  *************************
  Conduit Surcharge Summary
  *************************
  
  ----------------------------------------------------------------------------
                                                           Hours        Hours 
                         --------- Hours Full --------   Above Full   Capacity
  Conduit                Both Ends  Upstream  Dnstream   Normal Flow   Limited
  ----------------------------------------------------------------------------
  C1                          1.81      1.87      1.84      0.88         0.01
  C2                          1.73      1.84      1.77      1.61         0.01
  C3                          1.71      1.77      1.74      1.46         0.01
  C4                          1.43      1.74      1.48      1.78         0.01
  C5                          1.28      1.48      1.50      2.36         0.01
  C6                          1.38      1.50      1.59      2.45         0.01
  C7                          1.45      1.59      1.46      2.35         0.01
  C8                          1.42      1.46      1.42      2.38         0.01
  C9                          1.34      1.42      1.37      5.02         0.01
  C10                         1.33      1.37      1.63      5.17         0.01
  C11                         1.54      1.63      1.62      4.97         0.01
  C12                         1.61      1.62      1.76      5.10         0.01
  C13                         1.64      1.76      1.64      5.37         0.01
  C14                         1.61      1.64      1.61      5.30         0.01
  C15                         1.49      1.61      1.49      5.47         0.01
  C16                         1.38      1.49      1.38      5.02         0.01
  C17                         1.30      1.38      1.32      4.57         0.01
  C18                         1.25      1.32      1.26      4.40         0.01
  C19                         1.23      1.26      1.27      5.49         0.01
  C20                         1.24      1.27      1.28      5.42         0.01
  C21                         1.22      1.28      1.22      4.51         0.01
  C22                         0.62      1.22      0.62      5.78         0.01
  C23                         0.52      0.62      0.52      5.50         0.01
  C24                         0.49      0.52      0.55      5.33         0.01
  C25                         0.50      0.55      0.55      5.26         0.01
  C26                         0.52      0.55      0.63      5.54         0.01
  C27                         0.62      0.63      0.63      5.73         0.01
  C28                         0.45      0.63      0.45      5.17         0.01
  C29                         0.01      0.45      0.01      5.76         0.01
  C30                         0.01      0.01      0.01      5.58         0.01
  C31                         0.01      0.01      0.01      5.41         0.01
  C32                         2.54      2.56      2.54      1.50         0.01
  C33                         2.01      2.54      2.01      1.61         0.01
  C34                         1.57      2.01      1.60      1.60         0.01
  C35                         1.41      1.60      1.54      1.76         0.01
  C36                         1.28      1.54      1.36      1.71         0.01
  C37                         1.33      1.36      1.97      2.21         0.01
  C38                         1.83      1.97      1.89      3.04         0.01
  C39                         1.84      1.89      1.84      3.31         0.01
  C40                         1.77      1.84      1.77      3.66         0.01
  C41                         1.74      1.77      1.80      4.33         0.01
  C42                         1.79      1.80      1.79      4.47         0.01
  C43                         1.57      1.79      1.57      4.38         0.01
  C44                         1.49      1.57      1.49      4.80         0.01
  C45                         1.16      1.49      1.16      5.12         0.01
  C46                         1.13      1.16      1.42      5.03         0.01
  C47                         0.90      0.93      0.96      1.91         0.01
  C48                         0.94      0.96      0.95      1.17         0.01
  C49                         0.95      0.95      1.06      1.55         0.01
  C50                         1.05      1.06      1.09      1.67         0.01
  C51                         1.09      1.09      1.13      1.84         0.01
  C52                         1.10      1.13      1.10      3.22         0.01
  C53                         1.06      1.10      1.06      3.39         0.01
  C54                         1.04      1.06      1.05      4.85         0.01
  C55                         1.00      1.05      1.00      5.06         0.01
  C56                         0.97      1.00      0.97      5.55         0.01
  C57                         0.86      0.97      0.86      5.69         0.01
  C58                         0.81      0.86      0.83      5.41         0.01
  C59                         0.74      0.83      0.76      5.15         0.01
  C60                         0.69      0.76      0.69      5.06         0.01
  C61                         0.64      0.69      0.64      5.09         0.01
  C62                         0.60      0.64      0.60      5.27         0.01
  C63                         0.59      0.60      0.62      5.42         0.01
  

  Analysis begun on:  Fri Nov 29 09:07:01 2019
  Analysis ended on:  Fri Nov 29 09:07:01 2019
  Total elapsed time: < 1 sec