
  EPA STORM WATER MANAGEMENT MODEL - VERSION 5.1 (Build 5.1.013)
  --------------------------------------------------------------

  Scenario Run :  BASE 
  
  
  *********************************************************
  NOTE: The summary statistics displayed in this report are
  based on results found at every computational time step,  
  not just on results from each reporting time step.
  *********************************************************
  
  ****************
  Analysis Options
  ****************
  Flow Units ............... CFS
  Process Models:
    Rainfall/Runoff ........ NO
    RDII ................... NO
    Snowmelt ............... NO
    Groundwater ............ NO
    Flow Routing ........... YES
    Ponding Allowed ........ YES
    Water Quality .......... NO
  Flow Routing Method ...... DYNWAVE
  Surcharge Method ......... EXTRAN
  Starting Date ............ 01/01/1900 00:00:00
  Ending Date .............. 01/03/1900 00:00:00
  Antecedent Dry Days ...... 0.0
  Report Time Step ......... 00:05:00
  Routing Time Step ........ 30.00 sec
  Variable Time Step ....... YES
  Maximum Trials ........... 4
  Number of Threads ........ 1
  Head Tolerance ........... 0.005000 ft
  
  
  **************************        Volume        Volume
  Flow Routing Continuity        acre-feet      10^6 gal
  **************************     ---------     ---------
  Dry Weather Inflow .......         0.000         0.000
  Wet Weather Inflow .......         0.000         0.000
  Groundwater Inflow .......         0.000         0.000
  RDII Inflow ..............         0.000         0.000
  External Inflow ..........         0.000         0.000
  External Outflow .........         0.000         0.000
  Flooding Loss ............         0.000         0.000
  Evaporation Loss .........         0.000         0.000
  Exfiltration Loss ........         0.000         0.000
  Initial Stored Volume ....         0.000         0.000
  Final Stored Volume ......         0.000         0.000
  Continuity Error (%) .....         0.000
  
  
  ***************************
  Time-Step Critical Elements
  ***************************
  None
  
  
  ********************************
  Highest Flow Instability Indexes
  ********************************
  All links are stable.
  
  
  ******************
  Node Depth Summary
  ******************
  
  ---------------------------------------------------------------------------------
                                 Average  Maximum  Maximum  Time of Max    Reported
                                   Depth    Depth      HGL   Occurrence   Max Depth
  Node                 Type         Feet     Feet     Feet  days hr:min        Feet
  ---------------------------------------------------------------------------------
  0-1                  JUNCTION  -nan(ind)     0.00  8627.50     0  00:00        0.00
  0-10                 JUNCTION  -nan(ind)     0.00  8671.93     0  00:00        0.00
  0-10A                JUNCTION  -nan(ind)     0.00  8674.30     0  00:00        0.00
  0-11                 JUNCTION  -nan(ind)     0.00  8677.52     0  00:00        0.00
  0-12                 JUNCTION  -nan(ind)     0.00  8681.25     0  00:00        0.00
  0-13                 JUNCTION  -nan(ind)     0.00  8682.54     0  00:00        0.00
  0-14                 JUNCTION  -nan(ind)     0.00  8683.47     0  00:00        0.00
  0-15                 JUNCTION  -nan(ind)     0.00  8684.65     0  00:00        0.00
  0-16                 JUNCTION  -nan(ind)     0.00  8685.51     0  00:00        0.00
  0-17                 JUNCTION  -nan(ind)     0.00  8686.88     0  00:00        0.00
  0-18                 JUNCTION  -nan(ind)     0.00  8688.07     0  00:00        0.00
  0-18A                JUNCTION  -nan(ind)     0.00  8688.30     0  00:00        0.00
  0-18B                JUNCTION  -nan(ind)     0.00  8688.90     0  00:00        0.00
  0-19                 JUNCTION  -nan(ind)     0.00  8689.26     0  00:00        0.00
  0-1A                 JUNCTION  -nan(ind)     0.00  8627.00     0  00:00        0.00
  0-1B                 JUNCTION  -nan(ind)     0.00  8626.75     0  00:00        0.00
  0-1C                 JUNCTION  -nan(ind)     0.00  8626.00     0  00:00        0.00
  0-2                  JUNCTION  -nan(ind)     0.00  8628.16     0  00:00        0.00
  0-20                 JUNCTION  -nan(ind)     0.00  8690.68     0  00:00        0.00
  0-21                 JUNCTION  -nan(ind)     0.00  8691.94     0  00:00        0.00
  0-22                 JUNCTION  -nan(ind)     0.00  8693.21     0  00:00        0.00
  0-23                 JUNCTION  -nan(ind)     0.00  8697.74     0  00:00        0.00
  0-24                 JUNCTION  -nan(ind)     0.00  8702.49     0  00:00        0.00
  0-24A                JUNCTION  -nan(ind)     0.00  8704.00     0  00:00        0.00
  0-25                 JUNCTION  -nan(ind)     0.00  8708.57     0  00:00        0.00
  0-26                 JUNCTION  -nan(ind)     0.00  8711.74     0  00:00        0.00
  0-27                 JUNCTION  -nan(ind)     0.00  8715.16     0  00:00        0.00
  0-28                 JUNCTION  -nan(ind)     0.00  8718.01     0  00:00        0.00
  0-29                 JUNCTION  -nan(ind)     0.00  8718.81     0  00:00        0.00
  0-3                  JUNCTION  -nan(ind)     0.00  8634.80     0  00:00        0.00
  0-30                 JUNCTION  -nan(ind)     0.00  8720.85     0  00:00        0.00
  0-30A                JUNCTION  -nan(ind)     0.00  8721.44     0  00:00        0.00
  0-30B                JUNCTION  -nan(ind)     0.00  8721.30     0  00:00        0.00
  0-31                 JUNCTION  -nan(ind)     0.00  8721.85     0  00:00        0.00
  0-32                 JUNCTION  -nan(ind)     0.00  8724.38     0  00:00        0.00
  0-32A                JUNCTION  -nan(ind)     0.00  8727.02     0  00:00        0.00
  0-33                 JUNCTION  -nan(ind)     0.00  8733.39     0  00:00        0.00
  0-34                 JUNCTION  -nan(ind)     0.00  8737.30     0  00:00        0.00
  0-34A                JUNCTION  -nan(ind)     0.00  8740.40     0  00:00        0.00
  0-35                 JUNCTION  -nan(ind)     0.00  8741.10     0  00:00        0.00
  0-36                 JUNCTION  -nan(ind)     0.00  8742.65     0  00:00        0.00
  0-37                 JUNCTION  -nan(ind)     0.00  8745.07     0  00:00        0.00
  0-38                 JUNCTION  -nan(ind)     0.00  8745.90     0  00:00        0.00
  0-38R                JUNCTION  -nan(ind)     0.00  8757.19     0  00:00        0.00
  0-3A                 JUNCTION  -nan(ind)     0.00  8635.00     0  00:00        0.00
  0-3B                 JUNCTION  -nan(ind)     0.00  8797.70     0  00:00        0.00
  0-3C                 JUNCTION  -nan(ind)     0.00  8808.52     0  00:00        0.00
  0-4                  JUNCTION  -nan(ind)     0.00  8636.81     0  00:00        0.00
  0-5                  JUNCTION  -nan(ind)     0.00  8814.81     0  00:00        0.00
  0-5A                 JUNCTION  -nan(ind)     0.00  8821.72     0  00:00        0.00
  0-5BR                JUNCTION  -nan(ind)     0.00  8827.44     0  00:00        0.00
  0-5_DUP              JUNCTION  -nan(ind)     0.00  8642.52     0  00:00        0.00
  0-6                  JUNCTION  -nan(ind)     0.00  8646.97     0  00:00        0.00
  0-7                  JUNCTION  -nan(ind)     0.00  8652.63     0  00:00        0.00
  0-8                  JUNCTION  -nan(ind)     0.00  8658.39     0  00:00        0.00
  0-9                  JUNCTION  -nan(ind)     0.00  8665.07     0  00:00        0.00
  0-R1                 JUNCTION  -nan(ind)     0.00  8768.61     0  00:00        0.00
  0-R2                 JUNCTION  -nan(ind)     0.00  8779.46     0  00:00        0.00
  0-R3                 JUNCTION  -nan(ind)     0.00  8792.00     0  00:00        0.00
  0-R4                 JUNCTION  -nan(ind)     0.00  8796.95     0  00:00        0.00
  B-1                  JUNCTION  -nan(ind)     0.00  8696.93     0  00:00        0.00
  B-10                 JUNCTION  -nan(ind)     0.00  8730.49     0  00:00        0.00
  B-11                 JUNCTION  -nan(ind)     0.00  8733.70     0  00:00        0.00
  B-12                 JUNCTION  -nan(ind)     0.00  8735.70     0  00:00        0.00
  B-13                 JUNCTION  -nan(ind)     0.00  8738.50     0  00:00        0.00
  B-13A                JUNCTION  -nan(ind)     0.00  8741.36     0  00:00        0.00
  B-14                 JUNCTION  -nan(ind)     0.00  8742.40     0  00:00        0.00
  B-15                 JUNCTION  -nan(ind)     0.00  8745.71     0  00:00        0.00
  B-16R                JUNCTION  -nan(ind)     0.00  8747.01     0  00:00        0.00
  B-16RA               JUNCTION  -nan(ind)     0.00  8748.69     0  00:00        0.00
  B-16RB               JUNCTION  -nan(ind)     0.00  8752.22     0  00:00        0.00
  B-17R                JUNCTION  -nan(ind)     0.00  8754.75     0  00:00        0.00
  B-18                 JUNCTION  -nan(ind)     0.00  8757.42     0  00:00        0.00
  B-19                 JUNCTION  -nan(ind)     0.00  8759.70     0  00:00        0.00
  B-2                  JUNCTION  -nan(ind)     0.00  8700.85     0  00:00        0.00
  B-20                 JUNCTION  -nan(ind)     0.00  8762.20     0  00:00        0.00
  B-21                 JUNCTION  -nan(ind)     0.00  8763.75     0  00:00        0.00
  B-22                 JUNCTION  -nan(ind)     0.00  8766.94     0  00:00        0.00
  B-2A                 JUNCTION  -nan(ind)     0.00  8701.10     0  00:00        0.00
  B-3                  JUNCTION  -nan(ind)     0.00  8705.24     0  00:00        0.00
  B-4                  JUNCTION  -nan(ind)     0.00  8708.66     0  00:00        0.00
  B-5                  JUNCTION  -nan(ind)     0.00  8712.57     0  00:00        0.00
  B-6                  JUNCTION  -nan(ind)     0.00  8716.08     0  00:00        0.00
  B-7                  JUNCTION  -nan(ind)     0.00  8719.35     0  00:00        0.00
  B-8                  JUNCTION  -nan(ind)     0.00  8722.41     0  00:00        0.00
  B-9                  JUNCTION  -nan(ind)     0.00  8726.71     0  00:00        0.00
  BMFC                 JUNCTION  -nan(ind)     0.00  8767.16     0  00:00        0.00
  BUFFALO_MT           JUNCTION  -nan(ind)     0.00  8770.10     0  00:00        0.00
  DILLON               JUNCTION  -nan(ind)     0.00  8831.00     0  00:00        0.00
  DILLON_VALLEY        JUNCTION  -nan(ind)     0.00  8831.00     0  00:00        0.00
  DVFV                 JUNCTION  -nan(ind)     0.00  8830.00     0  00:00        0.00
  MESA_CORTINA         JUNCTION  -nan(ind)     0.00  8770.10     0  00:00        0.00
  T-5C                 JUNCTION  -nan(ind)     0.00  8770.00     0  00:00        0.00
  O-WWTP               OUTFALL   -nan(ind)     0.00  8625.90     0  00:00        0.00
  
  
  *******************
  Node Inflow Summary
  *******************
  
  -------------------------------------------------------------------------------------------------
                                  Maximum  Maximum                  Lateral       Total        Flow
                                  Lateral    Total  Time of Max      Inflow      Inflow     Balance
                                   Inflow   Inflow   Occurrence      Volume      Volume       Error
  Node                 Type           CFS      CFS  days hr:min    10^6 gal    10^6 gal     Percent
  -------------------------------------------------------------------------------------------------
  0-1                  JUNCTION      0.00     0.00     0  00:00           0           0       0.000 gal
  0-10                 JUNCTION      0.00     0.00     0  00:00           0           0       0.000 gal
  0-10A                JUNCTION      0.00     0.00     0  00:00           0           0       0.000 gal
  0-11                 JUNCTION      0.00     0.00     0  00:00           0           0       0.000 gal
  0-12                 JUNCTION      0.00     0.00     0  00:00           0           0       0.000 gal
  0-13                 JUNCTION      0.00     0.00     0  00:00           0           0       0.000 gal
  0-14                 JUNCTION      0.00     0.00     0  00:00           0           0       0.000 gal
  0-15                 JUNCTION      0.00     0.00     0  00:00           0           0       0.000 gal
  0-16                 JUNCTION      0.00     0.00     0  00:00           0           0       0.000 gal
  0-17                 JUNCTION      0.00     0.00     0  00:00           0           0       0.000 gal
  0-18                 JUNCTION      0.00     0.00     0  00:00           0           0       0.000 gal
  0-18A                JUNCTION      0.00     0.00     0  00:00           0           0       0.000 gal
  0-18B                JUNCTION      0.00     0.00     0  00:00           0           0       0.000 gal
  0-19                 JUNCTION      0.00     0.00     0  00:00           0           0       0.000 gal
  0-1A                 JUNCTION      0.00     0.00     0  00:00           0           0       0.000 gal
  0-1B                 JUNCTION      0.00     0.00     0  00:00           0           0       0.000 gal
  0-1C                 JUNCTION      0.00     0.00     0  00:00           0           0       0.000 gal
  0-2                  JUNCTION      0.00     0.00     0  00:00           0           0       0.000 gal
  0-20                 JUNCTION      0.00     0.00     0  00:00           0           0       0.000 gal
  0-21                 JUNCTION      0.00     0.00     0  00:00           0           0       0.000 gal
  0-22                 JUNCTION      0.00     0.00     0  00:00           0           0       0.000 gal
  0-23                 JUNCTION      0.00     0.00     0  00:00           0           0       0.000 gal
  0-24                 JUNCTION      0.00     0.00     0  00:00           0           0       0.000 gal
  0-24A                JUNCTION      0.00     0.00     0  00:00           0           0       0.000 gal
  0-25                 JUNCTION      0.00     0.00     0  00:00           0           0       0.000 gal
  0-26                 JUNCTION      0.00     0.00     0  00:00           0           0       0.000 gal
  0-27                 JUNCTION      0.00     0.00     0  00:00           0           0       0.000 gal
  0-28                 JUNCTION      0.00     0.00     0  00:00           0           0       0.000 gal
  0-29                 JUNCTION      0.00     0.00     0  00:00           0           0       0.000 gal
  0-3                  JUNCTION      0.00     0.00     0  00:00           0           0       0.000 gal
  0-30                 JUNCTION      0.00     0.00     0  00:00           0           0       0.000 gal
  0-30A                JUNCTION      0.00     0.00     0  00:00           0           0       0.000 gal
  0-30B                JUNCTION      0.00     0.00     0  00:00           0           0       0.000 gal
  0-31                 JUNCTION      0.00     0.00     0  00:00           0           0       0.000 gal
  0-32                 JUNCTION      0.00     0.00     0  00:00           0           0       0.000 gal
  0-32A                JUNCTION      0.00     0.00     0  00:00           0           0       0.000 gal
  0-33                 JUNCTION      0.00     0.00     0  00:00           0           0       0.000 gal
  0-34                 JUNCTION      0.00     0.00     0  00:00           0           0       0.000 gal
  0-34A                JUNCTION      0.00     0.00     0  00:00           0           0       0.000 gal
  0-35                 JUNCTION      0.00     0.00     0  00:00           0           0       0.000 gal
  0-36                 JUNCTION      0.00     0.00     0  00:00           0           0       0.000 gal
  0-37                 JUNCTION      0.00     0.00     0  00:00           0           0       0.000 gal
  0-38                 JUNCTION      0.00     0.00     0  00:00           0           0       0.000 gal
  0-38R                JUNCTION      0.00     0.00     0  00:00           0           0       0.000 gal
  0-3A                 JUNCTION      0.00     0.00     0  00:00           0           0       0.000 gal
  0-3B                 JUNCTION      0.00     0.00     0  00:00           0           0       0.000 gal
  0-3C                 JUNCTION      0.00     0.00     0  00:00           0           0       0.000 gal
  0-4                  JUNCTION      0.00     0.00     0  00:00           0           0       0.000 gal
  0-5                  JUNCTION      0.00     0.00     0  00:00           0           0       0.000 gal
  0-5A                 JUNCTION      0.00     0.00     0  00:00           0           0       0.000 gal
  0-5BR                JUNCTION      0.00     0.00     0  00:00           0           0       0.000 gal
  0-5_DUP              JUNCTION      0.00     0.00     0  00:00           0           0       0.000 gal
  0-6                  JUNCTION      0.00     0.00     0  00:00           0           0       0.000 gal
  0-7                  JUNCTION      0.00     0.00     0  00:00           0           0       0.000 gal
  0-8                  JUNCTION      0.00     0.00     0  00:00           0           0       0.000 gal
  0-9                  JUNCTION      0.00     0.00     0  00:00           0           0       0.000 gal
  0-R1                 JUNCTION      0.00     0.00     0  00:00           0           0       0.000 gal
  0-R2                 JUNCTION      0.00     0.00     0  00:00           0           0       0.000 gal
  0-R3                 JUNCTION      0.00     0.00     0  00:00           0           0       0.000 gal
  0-R4                 JUNCTION      0.00     0.00     0  00:00           0           0       0.000 gal
  B-1                  JUNCTION      0.00     0.00     0  00:00           0           0       0.000 gal
  B-10                 JUNCTION      0.00     0.00     0  00:00           0           0       0.000 gal
  B-11                 JUNCTION      0.00     0.00     0  00:00           0           0       0.000 gal
  B-12                 JUNCTION      0.00     0.00     0  00:00           0           0       0.000 gal
  B-13                 JUNCTION      0.00     0.00     0  00:00           0           0       0.000 gal
  B-13A                JUNCTION      0.00     0.00     0  00:00           0           0       0.000 gal
  B-14                 JUNCTION      0.00     0.00     0  00:00           0           0       0.000 gal
  B-15                 JUNCTION      0.00     0.00     0  00:00           0           0       0.000 gal
  B-16R                JUNCTION      0.00     0.00     0  00:00           0           0       0.000 gal
  B-16RA               JUNCTION      0.00     0.00     0  00:00           0           0       0.000 gal
  B-16RB               JUNCTION      0.00     0.00     0  00:00           0           0       0.000 gal
  B-17R                JUNCTION      0.00     0.00     0  00:00           0           0       0.000 gal
  B-18                 JUNCTION      0.00     0.00     0  00:00           0           0       0.000 gal
  B-19                 JUNCTION      0.00     0.00     0  00:00           0           0       0.000 gal
  B-2                  JUNCTION      0.00     0.00     0  00:00           0           0       0.000 gal
  B-20                 JUNCTION      0.00     0.00     0  00:00           0           0       0.000 gal
  B-21                 JUNCTION      0.00     0.00     0  00:00           0           0       0.000 gal
  B-22                 JUNCTION      0.00     0.00     0  00:00           0           0       0.000 gal
  B-2A                 JUNCTION      0.00     0.00     0  00:00           0           0       0.000 gal
  B-3                  JUNCTION      0.00     0.00     0  00:00           0           0       0.000 gal
  B-4                  JUNCTION      0.00     0.00     0  00:00           0           0       0.000 gal
  B-5                  JUNCTION      0.00     0.00     0  00:00           0           0       0.000 gal
  B-6                  JUNCTION      0.00     0.00     0  00:00           0           0       0.000 gal
  B-7                  JUNCTION      0.00     0.00     0  00:00           0           0       0.000 gal
  B-8                  JUNCTION      0.00     0.00     0  00:00           0           0       0.000 gal
  B-9                  JUNCTION      0.00     0.00     0  00:00           0           0       0.000 gal
  BMFC                 JUNCTION      0.00     0.00     0  00:00           0           0       0.000 gal
  BUFFALO_MT           JUNCTION      0.00     0.00     0  00:00           0           0       0.000 gal
  DILLON               JUNCTION      0.00     0.00     0  00:00           0           0       0.000 gal
  DILLON_VALLEY        JUNCTION      0.00     0.00     0  00:00           0           0       0.000 gal
  DVFV                 JUNCTION      0.00     0.00     0  00:00           0           0       0.000 gal
  MESA_CORTINA         JUNCTION      0.00     0.00     0  00:00           0           0       0.000 gal
  T-5C                 JUNCTION      0.00     0.00     0  00:00           0           0       0.000 gal
  O-WWTP               OUTFALL       0.00     0.00     0  00:00           0           0       0.000 gal
  
  
  **********************
  Node Surcharge Summary
  **********************
  
  No nodes were surcharged.
  
  
  *********************
  Node Flooding Summary
  *********************
  
  No nodes were flooded.
  
  
  ***********************
  Outfall Loading Summary
  ***********************
  
  -----------------------------------------------------------
                         Flow       Avg       Max       Total
                         Freq      Flow      Flow      Volume
  Outfall Node           Pcnt       CFS       CFS    10^6 gal
  -----------------------------------------------------------
  O-WWTP              -nan(ind)      0.00      0.00       0.000
  -----------------------------------------------------------
  System              -nan(ind)      0.00      0.00       0.000
  
  
  ********************
  Link Flow Summary
  ********************
  
  -----------------------------------------------------------------------------
                                 Maximum  Time of Max   Maximum    Max/    Max/
                                  |Flow|   Occurrence   |Veloc|    Full    Full
  Link                 Type          CFS  days hr:min    ft/sec    Flow   Depth
  -----------------------------------------------------------------------------
  0-1-0-1A/24          CONDUIT      0.00     0  00:00      0.00    0.00    0.00
  0-10-0-9/24/ACP      CONDUIT      0.00     0  00:00      0.00    0.00    0.00
  0-10A-0-10/24/ACP    CONDUIT      0.00     0  00:00      0.00    0.00    0.00
  0-11-0-10A/24/ACP    CONDUIT      0.00     0  00:00      0.00    0.00    0.00
  0-12-0-11/24/ACP     CONDUIT      0.00     0  00:00      0.00    0.00    0.00
  0-13-0-12/24/ACP     CONDUIT      0.00     0  00:00      0.00    0.00    0.00
  0-14-0-13/24/ACP     CONDUIT      0.00     0  00:00      0.00    0.00    0.00
  0-15-0-14/24/ACP     CONDUIT      0.00     0  00:00      0.00    0.00    0.00
  0-16-0-15/24/ACP     CONDUIT      0.00     0  00:00      0.00    0.00    0.00
  0-17-0-16/24/ACP     CONDUIT      0.00     0  00:00      0.00    0.00    0.00
  0-18-0-17/24/ACP     CONDUIT      0.00     0  00:00      0.00    0.00    0.00
  0-18A-0-18/27/ACP    CONDUIT      0.00     0  00:00      0.00    0.00    0.00
  0-18B-0-18A/27/ACP   CONDUIT      0.00     0  00:00      0.00    0.00    0.00
  0-19-0-18B/27/ACP    CONDUIT      0.00     0  00:00      0.00    0.00    0.00
  0-1A-0-1B/24         CONDUIT      0.00     0  00:00      0.00    0.00    0.00
  0-1B-0-1C/24/        CONDUIT      0.00     0  00:00      0.00    0.00    0.00
  0-2-0-1/24/ACP       CONDUIT      0.00     0  00:00      0.00    0.00    0.00
  0-20-0-19/27/ACP     CONDUIT      0.00     0  00:00      0.00    0.00    0.00
  0-21-0-20/18/DIP     CONDUIT      0.00     0  00:00      0.00    0.00    0.00
  0-22-0-21/18/DIP     CONDUIT      0.00     0  00:00      0.00    0.00    0.00
  0-23-0-22/15/DIP     CONDUIT      0.00     0  00:00      0.00    0.00    0.00
  0-24-0-23/15/DIP     CONDUIT      0.00     0  00:00      0.00    0.00    0.00
  0-24A-0-24/15/DIP    CONDUIT      0.00     0  00:00      0.00    0.00    0.00
  0-25-0-24A/15/DIP    CONDUIT      0.00     0  00:00      0.00    0.00    0.00
  0-26-0-25/15/DIP     CONDUIT      0.00     0  00:00      0.00    0.00    0.00
  0-27-0-26/15/DIP     CONDUIT      0.00     0  00:00      0.00    0.00    0.00
  0-28-0-27/15/DIP     CONDUIT      0.00     0  00:00      0.00    0.00    0.00
  0-29-0-28/15/DIP     CONDUIT      0.00     0  00:00      0.00    0.00    0.00
  0-3-0-2/24/ACP       CONDUIT      0.00     0  00:00      0.00    0.00    0.00
  0-30-0-29/15/DIP     CONDUIT      0.00     0  00:00      0.00    0.00    0.00
  0-30A-0-30B/15/VCP   CONDUIT      0.00     0  00:00      0.00    0.00    0.00
  0-30B-0-30/15/VCP    CONDUIT      0.00     0  00:00      0.00    0.00    0.00
  0-31-0-30A/15/VCP    CONDUIT      0.00     0  00:00      0.00    0.00    0.00
  0-32-0-31/15/VCP     CONDUIT      0.00     0  00:00      0.00    0.00    0.00
  0-32A-0-32/15/VCP    CONDUIT      0.00     0  00:00      0.00    0.00    0.00
  0-33-0-32A/15/VCP    CONDUIT      0.00     0  00:00      0.00    0.00    0.00
  0-34-0-33/15/VCP     CONDUIT      0.00     0  00:00      0.00    0.00    0.00
  0-36-0-35/15/VCP     CONDUIT      0.00     0  00:00      0.00    0.00    0.00
  0-37-0-36/15/VCP     CONDUIT      0.00     0  00:00      0.00    0.00    0.00
  0-38-0-37/15/VCP     CONDUIT      0.00     0  00:00      0.00    0.00    0.00
  0-38R-0-38/15/VCP    CONDUIT      0.00     0  00:00      0.00    0.00    0.00
  0-3A-0-3/24/ACP      CONDUIT      0.00     0  00:00      0.00    0.00    0.00
  0-3B-0-R4/18/VCP     CONDUIT      0.00     0  00:00      0.00    0.00    0.00
  0-3C-0-3B/20/VCP     CONDUIT      0.00     0  00:00      0.00    0.00    0.00
  0-4-0-3A/24/ACP      CONDUIT      0.00     0  00:00      0.00    0.00    0.00
  0-5-0-3C/20/VCP      CONDUIT      0.00     0  00:00      0.00    0.00    0.00
  0-5-0-4/24/ACP       CONDUIT      0.00     0  00:00      0.00    0.00    0.00
  0-5A-0-5/20/VCP      CONDUIT      0.00     0  00:00      0.00    0.00    0.00
  0-5BR-0-5A/20/VCP    CONDUIT      0.00     0  00:00      0.00    0.00    0.00
  0-6-0-5/24/ACP       CONDUIT      0.00     0  00:00      0.00    0.00    0.00
  0-7-0-6/24/ACP       CONDUIT      0.00     0  00:00      0.00    0.00    0.00
  0-8-0-7/24/ACP       CONDUIT      0.00     0  00:00      0.00    0.00    0.00
  0-9-0-8/24/ACP       CONDUIT      0.00     0  00:00      0.00    0.00    0.00
  0-R1-0-38R/15/VCP    CONDUIT      0.00     0  00:00      0.00    0.00    0.00
  0-R2-0-R1/15/VCP     CONDUIT      0.00     0  00:00      0.00    0.00    0.00
  0-R3-0-R2/15/VCP     CONDUIT      0.00     0  00:00      0.00    0.00    0.00
  0-R4-0-R3/15/VCP     CONDUIT      0.00     0  00:00      0.00    0.00    0.00
  B-1-0-20/18/VCP      CONDUIT      0.00     0  00:00      0.00    0.00    0.00
  B-10-B-9/18/VCP      CONDUIT      0.00     0  00:00      0.00    0.00    0.00
  B-11-B-10/18/VCP     CONDUIT      0.00     0  00:00      0.00    0.00    0.00
  B-12-B-11/18/VCP     CONDUIT      0.00     0  00:00      0.00    0.00    0.00
  B-13-B-12/18/VCP     CONDUIT      0.00     0  00:00      0.00    0.00    0.00
  B-13A-B-13/18/VCP    CONDUIT      0.00     0  00:00      0.00    0.00    0.00
  B-14-B-1A3/18/VCP    CONDUIT      0.00     0  00:00      0.00    0.00    0.00
  B-15-B-14/18/VCP     CONDUIT      0.00     0  00:00      0.00    0.00    0.00
  B-16R-B-15/18/VCP    CONDUIT      0.00     0  00:00      0.00    0.00    0.00
  B-16RA-B-16R/18/PVC  CONDUIT      0.00     0  00:00      0.00    0.00    0.00
  B-16RB-B-16RA/18/PVC CONDUIT      0.00     0  00:00      0.00    0.00    0.00
  B-17R-B-16B/18/PVC   CONDUIT      0.00     0  00:00      0.00    0.00    0.00
  B-18-B-17R/18/VCP    CONDUIT      0.00     0  00:00      0.00    0.00    0.00
  B-19-B-18/15/VCP     CONDUIT      0.00     0  00:00      0.00    0.00    0.00
  B-2-B-1/18/VCP       CONDUIT      0.00     0  00:00      0.00    0.00    0.00
  B-20-B-19/15/VCP     CONDUIT      0.00     0  00:00      0.00    0.00    0.00
  B-21-B-20/15/VCP     CONDUIT      0.00     0  00:00      0.00    0.00    0.00
  B-22-B-21            CONDUIT      0.00     0  00:00      0.00    0.00    0.00
  B-2A-B-2/18/VCP      CONDUIT      0.00     0  00:00      0.00    0.00    0.00
  B-3-B-2A/18/VCP      CONDUIT      0.00     0  00:00      0.00    0.00    0.00
  B-4-B-3/18/VCP       CONDUIT      0.00     0  00:00      0.00    0.00    0.00
  B-5-B-4/18/VCP       CONDUIT      0.00     0  00:00      0.00    0.00    0.00
  B-6-B-5/18/VCP       CONDUIT      0.00     0  00:00      0.00    0.00    0.00
  B-7-B-6/18/VCP       CONDUIT      0.00     0  00:00      0.00    0.00    0.00
  B-8-B-7/18/VCP       CONDUIT      0.00     0  00:00      0.00    0.00    0.00
  B-9-8/18/VCP         CONDUIT      0.00     0  00:00      0.00    0.00    0.00
  BMFV-B-22            CONDUIT      0.00     0  00:00      0.00    0.00    0.00
  BUFFALLO_MT          CONDUIT      0.00     0  00:00      0.00    0.00    0.00
  DILLION_VALLEY       CONDUIT      0.00     0  00:00      0.00    0.00    0.00
  DILLON               CONDUIT      0.00     0  00:00      0.00    0.00    0.00
  DVFV-0-5BR/20/VCP    CONDUIT      0.00     0  00:00      0.00    0.00    0.00
  MESA_CORTINA         CONDUIT      0.00     0  00:00      0.00    0.00    0.00
  P-89                 CONDUIT      0.00     0  00:00      0.00    0.00    0.00
  P-90                 CONDUIT      0.00     0  00:00      0.00    0.00    0.00
  P-WWTP               CONDUIT      0.00     0  00:00      0.00    0.00    0.00
  T-5C-BMFV            CONDUIT      0.00     0  00:00      0.00    0.00    0.00
  
  
  ***************************
  Flow Classification Summary
  ***************************
  
  -------------------------------------------------------------------------------------
                      Adjusted    ---------- Fraction of Time in Flow Class ---------- 
                       /Actual         Up    Down  Sub   Sup   Up    Down  Norm  Inlet 
  Conduit               Length    Dry  Dry   Dry   Crit  Crit  Crit  Crit  Ltd   Ctrl  
  -------------------------------------------------------------------------------------
  0-1-0-1A/24             1.00   -nan(ind)  -nan(ind)  -nan(ind)  -nan(ind)  -nan(ind)  -nan(ind)  -nan(ind)  -nan(ind)  -nan(ind)
  0-10-0-9/24/ACP         1.00   -nan(ind)  -nan(ind)  -nan(ind)  -nan(ind)  -nan(ind)  -nan(ind)  -nan(ind)  -nan(ind)  -nan(ind)
  0-10A-0-10/24/ACP       1.00   -nan(ind)  -nan(ind)  -nan(ind)  -nan(ind)  -nan(ind)  -nan(ind)  -nan(ind)  -nan(ind)  -nan(ind)
  0-11-0-10A/24/ACP       1.00   -nan(ind)  -nan(ind)  -nan(ind)  -nan(ind)  -nan(ind)  -nan(ind)  -nan(ind)  -nan(ind)  -nan(ind)
  0-12-0-11/24/ACP        1.00   -nan(ind)  -nan(ind)  -nan(ind)  -nan(ind)  -nan(ind)  -nan(ind)  -nan(ind)  -nan(ind)  -nan(ind)
  0-13-0-12/24/ACP        1.00   -nan(ind)  -nan(ind)  -nan(ind)  -nan(ind)  -nan(ind)  -nan(ind)  -nan(ind)  -nan(ind)  -nan(ind)
  0-14-0-13/24/ACP        1.00   -nan(ind)  -nan(ind)  -nan(ind)  -nan(ind)  -nan(ind)  -nan(ind)  -nan(ind)  -nan(ind)  -nan(ind)
  0-15-0-14/24/ACP        1.00   -nan(ind)  -nan(ind)  -nan(ind)  -nan(ind)  -nan(ind)  -nan(ind)  -nan(ind)  -nan(ind)  -nan(ind)
  0-16-0-15/24/ACP        1.00   -nan(ind)  -nan(ind)  -nan(ind)  -nan(ind)  -nan(ind)  -nan(ind)  -nan(ind)  -nan(ind)  -nan(ind)
  0-17-0-16/24/ACP        1.00   -nan(ind)  -nan(ind)  -nan(ind)  -nan(ind)  -nan(ind)  -nan(ind)  -nan(ind)  -nan(ind)  -nan(ind)
  0-18-0-17/24/ACP        1.00   -nan(ind)  -nan(ind)  -nan(ind)  -nan(ind)  -nan(ind)  -nan(ind)  -nan(ind)  -nan(ind)  -nan(ind)
  0-18A-0-18/27/ACP       1.00   -nan(ind)  -nan(ind)  -nan(ind)  -nan(ind)  -nan(ind)  -nan(ind)  -nan(ind)  -nan(ind)  -nan(ind)
  0-18B-0-18A/27/ACP      1.00   -nan(ind)  -nan(ind)  -nan(ind)  -nan(ind)  -nan(ind)  -nan(ind)  -nan(ind)  -nan(ind)  -nan(ind)
  0-19-0-18B/27/ACP       1.00   -nan(ind)  -nan(ind)  -nan(ind)  -nan(ind)  -nan(ind)  -nan(ind)  -nan(ind)  -nan(ind)  -nan(ind)
  0-1A-0-1B/24            1.00   -nan(ind)  -nan(ind)  -nan(ind)  -nan(ind)  -nan(ind)  -nan(ind)  -nan(ind)  -nan(ind)  -nan(ind)
  0-1B-0-1C/24/           1.25   -nan(ind)  -nan(ind)  -nan(ind)  -nan(ind)  -nan(ind)  -nan(ind)  -nan(ind)  -nan(ind)  -nan(ind)
  0-2-0-1/24/ACP          1.00   -nan(ind)  -nan(ind)  -nan(ind)  -nan(ind)  -nan(ind)  -nan(ind)  -nan(ind)  -nan(ind)  -nan(ind)
  0-20-0-19/27/ACP        1.00   -nan(ind)  -nan(ind)  -nan(ind)  -nan(ind)  -nan(ind)  -nan(ind)  -nan(ind)  -nan(ind)  -nan(ind)
  0-21-0-20/18/DIP        1.37   -nan(ind)  -nan(ind)  -nan(ind)  -nan(ind)  -nan(ind)  -nan(ind)  -nan(ind)  -nan(ind)  -nan(ind)
  0-22-0-21/18/DIP        1.00   -nan(ind)  -nan(ind)  -nan(ind)  -nan(ind)  -nan(ind)  -nan(ind)  -nan(ind)  -nan(ind)  -nan(ind)
  0-23-0-22/15/DIP        1.00   -nan(ind)  -nan(ind)  -nan(ind)  -nan(ind)  -nan(ind)  -nan(ind)  -nan(ind)  -nan(ind)  -nan(ind)
  0-24-0-23/15/DIP        1.00   -nan(ind)  -nan(ind)  -nan(ind)  -nan(ind)  -nan(ind)  -nan(ind)  -nan(ind)  -nan(ind)  -nan(ind)
  0-24A-0-24/15/DIP       1.00   -nan(ind)  -nan(ind)  -nan(ind)  -nan(ind)  -nan(ind)  -nan(ind)  -nan(ind)  -nan(ind)  -nan(ind)
  0-25-0-24A/15/DIP       1.00   -nan(ind)  -nan(ind)  -nan(ind)  -nan(ind)  -nan(ind)  -nan(ind)  -nan(ind)  -nan(ind)  -nan(ind)
  0-26-0-25/15/DIP        1.00   -nan(ind)  -nan(ind)  -nan(ind)  -nan(ind)  -nan(ind)  -nan(ind)  -nan(ind)  -nan(ind)  -nan(ind)
  0-27-0-26/15/DIP        1.00   -nan(ind)  -nan(ind)  -nan(ind)  -nan(ind)  -nan(ind)  -nan(ind)  -nan(ind)  -nan(ind)  -nan(ind)
  0-28-0-27/15/DIP        1.00   -nan(ind)  -nan(ind)  -nan(ind)  -nan(ind)  -nan(ind)  -nan(ind)  -nan(ind)  -nan(ind)  -nan(ind)
  0-29-0-28/15/DIP        1.00   -nan(ind)  -nan(ind)  -nan(ind)  -nan(ind)  -nan(ind)  -nan(ind)  -nan(ind)  -nan(ind)  -nan(ind)
  0-3-0-2/24/ACP          1.00   -nan(ind)  -nan(ind)  -nan(ind)  -nan(ind)  -nan(ind)  -nan(ind)  -nan(ind)  -nan(ind)  -nan(ind)
  0-30-0-29/15/DIP        1.00   -nan(ind)  -nan(ind)  -nan(ind)  -nan(ind)  -nan(ind)  -nan(ind)  -nan(ind)  -nan(ind)  -nan(ind)
  0-30A-0-30B/15/VCP      1.00   -nan(ind)  -nan(ind)  -nan(ind)  -nan(ind)  -nan(ind)  -nan(ind)  -nan(ind)  -nan(ind)  -nan(ind)
  0-30B-0-30/15/VCP       1.00   -nan(ind)  -nan(ind)  -nan(ind)  -nan(ind)  -nan(ind)  -nan(ind)  -nan(ind)  -nan(ind)  -nan(ind)
  0-31-0-30A/15/VCP       1.00   -nan(ind)  -nan(ind)  -nan(ind)  -nan(ind)  -nan(ind)  -nan(ind)  -nan(ind)  -nan(ind)  -nan(ind)
  0-32-0-31/15/VCP        1.00   -nan(ind)  -nan(ind)  -nan(ind)  -nan(ind)  -nan(ind)  -nan(ind)  -nan(ind)  -nan(ind)  -nan(ind)
  0-32A-0-32/15/VCP       1.00   -nan(ind)  -nan(ind)  -nan(ind)  -nan(ind)  -nan(ind)  -nan(ind)  -nan(ind)  -nan(ind)  -nan(ind)
  0-33-0-32A/15/VCP       1.00   -nan(ind)  -nan(ind)  -nan(ind)  -nan(ind)  -nan(ind)  -nan(ind)  -nan(ind)  -nan(ind)  -nan(ind)
  0-34-0-33/15/VCP        1.00   -nan(ind)  -nan(ind)  -nan(ind)  -nan(ind)  -nan(ind)  -nan(ind)  -nan(ind)  -nan(ind)  -nan(ind)
  0-36-0-35/15/VCP        1.00   -nan(ind)  -nan(ind)  -nan(ind)  -nan(ind)  -nan(ind)  -nan(ind)  -nan(ind)  -nan(ind)  -nan(ind)
  0-37-0-36/15/VCP        1.00   -nan(ind)  -nan(ind)  -nan(ind)  -nan(ind)  -nan(ind)  -nan(ind)  -nan(ind)  -nan(ind)  -nan(ind)
  0-38-0-37/15/VCP        1.00   -nan(ind)  -nan(ind)  -nan(ind)  -nan(ind)  -nan(ind)  -nan(ind)  -nan(ind)  -nan(ind)  -nan(ind)
  0-38R-0-38/15/VCP       1.83   -nan(ind)  -nan(ind)  -nan(ind)  -nan(ind)  -nan(ind)  -nan(ind)  -nan(ind)  -nan(ind)  -nan(ind)
  0-3A-0-3/24/ACP         1.04   -nan(ind)  -nan(ind)  -nan(ind)  -nan(ind)  -nan(ind)  -nan(ind)  -nan(ind)  -nan(ind)  -nan(ind)
  0-3B-0-R4/18/VCP        1.00   -nan(ind)  -nan(ind)  -nan(ind)  -nan(ind)  -nan(ind)  -nan(ind)  -nan(ind)  -nan(ind)  -nan(ind)
  0-3C-0-3B/20/VCP        1.00   -nan(ind)  -nan(ind)  -nan(ind)  -nan(ind)  -nan(ind)  -nan(ind)  -nan(ind)  -nan(ind)  -nan(ind)
  0-4-0-3A/24/ACP         1.00   -nan(ind)  -nan(ind)  -nan(ind)  -nan(ind)  -nan(ind)  -nan(ind)  -nan(ind)  -nan(ind)  -nan(ind)
  0-5-0-3C/20/VCP         1.00   -nan(ind)  -nan(ind)  -nan(ind)  -nan(ind)  -nan(ind)  -nan(ind)  -nan(ind)  -nan(ind)  -nan(ind)
  0-5-0-4/24/ACP          1.00   -nan(ind)  -nan(ind)  -nan(ind)  -nan(ind)  -nan(ind)  -nan(ind)  -nan(ind)  -nan(ind)  -nan(ind)
  0-5A-0-5/20/VCP         1.00   -nan(ind)  -nan(ind)  -nan(ind)  -nan(ind)  -nan(ind)  -nan(ind)  -nan(ind)  -nan(ind)  -nan(ind)
  0-5BR-0-5A/20/VCP       1.00   -nan(ind)  -nan(ind)  -nan(ind)  -nan(ind)  -nan(ind)  -nan(ind)  -nan(ind)  -nan(ind)  -nan(ind)
  0-6-0-5/24/ACP          1.00   -nan(ind)  -nan(ind)  -nan(ind)  -nan(ind)  -nan(ind)  -nan(ind)  -nan(ind)  -nan(ind)  -nan(ind)
  0-7-0-6/24/ACP          1.00   -nan(ind)  -nan(ind)  -nan(ind)  -nan(ind)  -nan(ind)  -nan(ind)  -nan(ind)  -nan(ind)  -nan(ind)
  0-8-0-7/24/ACP          1.00   -nan(ind)  -nan(ind)  -nan(ind)  -nan(ind)  -nan(ind)  -nan(ind)  -nan(ind)  -nan(ind)  -nan(ind)
  0-9-0-8/24/ACP          1.00   -nan(ind)  -nan(ind)  -nan(ind)  -nan(ind)  -nan(ind)  -nan(ind)  -nan(ind)  -nan(ind)  -nan(ind)
  0-R1-0-38R/15/VCP       1.00   -nan(ind)  -nan(ind)  -nan(ind)  -nan(ind)  -nan(ind)  -nan(ind)  -nan(ind)  -nan(ind)  -nan(ind)
  0-R2-0-R1/15/VCP        1.00   -nan(ind)  -nan(ind)  -nan(ind)  -nan(ind)  -nan(ind)  -nan(ind)  -nan(ind)  -nan(ind)  -nan(ind)
  0-R3-0-R2/15/VCP        1.00   -nan(ind)  -nan(ind)  -nan(ind)  -nan(ind)  -nan(ind)  -nan(ind)  -nan(ind)  -nan(ind)  -nan(ind)
  0-R4-0-R3/15/VCP        1.18   -nan(ind)  -nan(ind)  -nan(ind)  -nan(ind)  -nan(ind)  -nan(ind)  -nan(ind)  -nan(ind)  -nan(ind)
  B-1-0-20/18/VCP         1.00   -nan(ind)  -nan(ind)  -nan(ind)  -nan(ind)  -nan(ind)  -nan(ind)  -nan(ind)  -nan(ind)  -nan(ind)
  B-10-B-9/18/VCP         1.00   -nan(ind)  -nan(ind)  -nan(ind)  -nan(ind)  -nan(ind)  -nan(ind)  -nan(ind)  -nan(ind)  -nan(ind)
  B-11-B-10/18/VCP        1.00   -nan(ind)  -nan(ind)  -nan(ind)  -nan(ind)  -nan(ind)  -nan(ind)  -nan(ind)  -nan(ind)  -nan(ind)
  B-12-B-11/18/VCP        1.00   -nan(ind)  -nan(ind)  -nan(ind)  -nan(ind)  -nan(ind)  -nan(ind)  -nan(ind)  -nan(ind)  -nan(ind)
  B-13-B-12/18/VCP        1.00   -nan(ind)  -nan(ind)  -nan(ind)  -nan(ind)  -nan(ind)  -nan(ind)  -nan(ind)  -nan(ind)  -nan(ind)
  B-13A-B-13/18/VCP       1.00   -nan(ind)  -nan(ind)  -nan(ind)  -nan(ind)  -nan(ind)  -nan(ind)  -nan(ind)  -nan(ind)  -nan(ind)
  B-14-B-1A3/18/VCP       1.00   -nan(ind)  -nan(ind)  -nan(ind)  -nan(ind)  -nan(ind)  -nan(ind)  -nan(ind)  -nan(ind)  -nan(ind)
  B-15-B-14/18/VCP        1.00   -nan(ind)  -nan(ind)  -nan(ind)  -nan(ind)  -nan(ind)  -nan(ind)  -nan(ind)  -nan(ind)  -nan(ind)
  B-16R-B-15/18/VCP       1.00   -nan(ind)  -nan(ind)  -nan(ind)  -nan(ind)  -nan(ind)  -nan(ind)  -nan(ind)  -nan(ind)  -nan(ind)
  B-16RA-B-16R/18/PVC     1.00   -nan(ind)  -nan(ind)  -nan(ind)  -nan(ind)  -nan(ind)  -nan(ind)  -nan(ind)  -nan(ind)  -nan(ind)
  B-16RB-B-16RA/18/PVC    1.00   -nan(ind)  -nan(ind)  -nan(ind)  -nan(ind)  -nan(ind)  -nan(ind)  -nan(ind)  -nan(ind)  -nan(ind)
  B-17R-B-16B/18/PVC      1.00   -nan(ind)  -nan(ind)  -nan(ind)  -nan(ind)  -nan(ind)  -nan(ind)  -nan(ind)  -nan(ind)  -nan(ind)
  B-18-B-17R/18/VCP       1.00   -nan(ind)  -nan(ind)  -nan(ind)  -nan(ind)  -nan(ind)  -nan(ind)  -nan(ind)  -nan(ind)  -nan(ind)
  B-19-B-18/15/VCP        1.00   -nan(ind)  -nan(ind)  -nan(ind)  -nan(ind)  -nan(ind)  -nan(ind)  -nan(ind)  -nan(ind)  -nan(ind)
  B-2-B-1/18/VCP          1.00   -nan(ind)  -nan(ind)  -nan(ind)  -nan(ind)  -nan(ind)  -nan(ind)  -nan(ind)  -nan(ind)  -nan(ind)
  B-20-B-19/15/VCP        1.00   -nan(ind)  -nan(ind)  -nan(ind)  -nan(ind)  -nan(ind)  -nan(ind)  -nan(ind)  -nan(ind)  -nan(ind)
  B-21-B-20/15/VCP        1.00   -nan(ind)  -nan(ind)  -nan(ind)  -nan(ind)  -nan(ind)  -nan(ind)  -nan(ind)  -nan(ind)  -nan(ind)
  B-22-B-21               1.00   -nan(ind)  -nan(ind)  -nan(ind)  -nan(ind)  -nan(ind)  -nan(ind)  -nan(ind)  -nan(ind)  -nan(ind)
  B-2A-B-2/18/VCP         2.26   -nan(ind)  -nan(ind)  -nan(ind)  -nan(ind)  -nan(ind)  -nan(ind)  -nan(ind)  -nan(ind)  -nan(ind)
  B-3-B-2A/18/VCP         1.00   -nan(ind)  -nan(ind)  -nan(ind)  -nan(ind)  -nan(ind)  -nan(ind)  -nan(ind)  -nan(ind)  -nan(ind)
  B-4-B-3/18/VCP          1.00   -nan(ind)  -nan(ind)  -nan(ind)  -nan(ind)  -nan(ind)  -nan(ind)  -nan(ind)  -nan(ind)  -nan(ind)
  B-5-B-4/18/VCP          1.00   -nan(ind)  -nan(ind)  -nan(ind)  -nan(ind)  -nan(ind)  -nan(ind)  -nan(ind)  -nan(ind)  -nan(ind)
  B-6-B-5/18/VCP          1.00   -nan(ind)  -nan(ind)  -nan(ind)  -nan(ind)  -nan(ind)  -nan(ind)  -nan(ind)  -nan(ind)  -nan(ind)
  B-7-B-6/18/VCP          1.00   -nan(ind)  -nan(ind)  -nan(ind)  -nan(ind)  -nan(ind)  -nan(ind)  -nan(ind)  -nan(ind)  -nan(ind)
  B-8-B-7/18/VCP          1.00   -nan(ind)  -nan(ind)  -nan(ind)  -nan(ind)  -nan(ind)  -nan(ind)  -nan(ind)  -nan(ind)  -nan(ind)
  B-9-8/18/VCP            1.00   -nan(ind)  -nan(ind)  -nan(ind)  -nan(ind)  -nan(ind)  -nan(ind)  -nan(ind)  -nan(ind)  -nan(ind)
  BMFV-B-22               1.00   -nan(ind)  -nan(ind)  -nan(ind)  -nan(ind)  -nan(ind)  -nan(ind)  -nan(ind)  -nan(ind)  -nan(ind)
  BUFFALLO_MT            12.09   -nan(ind)  -nan(ind)  -nan(ind)  -nan(ind)  -nan(ind)  -nan(ind)  -nan(ind)  -nan(ind)  -nan(ind)
  DILLION_VALLEY          8.96   -nan(ind)  -nan(ind)  -nan(ind)  -nan(ind)  -nan(ind)  -nan(ind)  -nan(ind)  -nan(ind)  -nan(ind)
  DILLON                 10.03   -nan(ind)  -nan(ind)  -nan(ind)  -nan(ind)  -nan(ind)  -nan(ind)  -nan(ind)  -nan(ind)  -nan(ind)
  DVFV-0-5BR/20/VCP       1.00   -nan(ind)  -nan(ind)  -nan(ind)  -nan(ind)  -nan(ind)  -nan(ind)  -nan(ind)  -nan(ind)  -nan(ind)
  MESA_CORTINA           12.09   -nan(ind)  -nan(ind)  -nan(ind)  -nan(ind)  -nan(ind)  -nan(ind)  -nan(ind)  -nan(ind)  -nan(ind)
  P-89                    1.10   -nan(ind)  -nan(ind)  -nan(ind)  -nan(ind)  -nan(ind)  -nan(ind)  -nan(ind)  -nan(ind)  -nan(ind)
  P-90                    1.00   -nan(ind)  -nan(ind)  -nan(ind)  -nan(ind)  -nan(ind)  -nan(ind)  -nan(ind)  -nan(ind)  -nan(ind)
  P-WWTP                  1.88   -nan(ind)  -nan(ind)  -nan(ind)  -nan(ind)  -nan(ind)  -nan(ind)  -nan(ind)  -nan(ind)  -nan(ind)
  T-5C-BMFV               2.58   -nan(ind)  -nan(ind)  -nan(ind)  -nan(ind)  -nan(ind)  -nan(ind)  -nan(ind)  -nan(ind)  -nan(ind)
  
  
  *************************
  Conduit Surcharge Summary
  *************************
  
  No conduits were surcharged.
  

  Analysis begun on:  Sat Nov 30 08:10:24 2019
  Analysis ended on:  Sat Nov 30 08:10:24 2019
  Total elapsed time: < 1 sec