
  EPA STORM WATER MANAGEMENT MODEL - VERSION 5.1 (Build 5.1.013)
  --------------------------------------------------------------

  Scenario Run :  BASE 
  
  WARNING 04: minimum elevation drop used for Conduit RUS0010.1
  WARNING 04: minimum elevation drop used for Conduit TEN0170.1
  WARNING 04: minimum elevation drop used for Conduit TEN1120.3
  
  ERROR 331: cannot open hotstart interface file C:\Users\Robert E Dickinson\Desktop\InfoWorks Files\InfoWorks Files\IW 2020\IW 2020 WCSMPU.HSDB\hotstart_file.HSF.

  Analysis begun on:  Fri Nov 29 09:07:02 2019
  Analysis ended on:  Fri Nov 29 09:07:02 2019
  Total elapsed time: < 1 sec