
  EPA STORM WATER MANAGEMENT MODEL - VERSION 5.1 (Build 5.1.013)
  --------------------------------------------------------------

  
  *********************************************************
  NOTE: The summary statistics displayed in this report are
  based on results found at every computational time step,  
  not just on results from each reporting time step.
  *********************************************************
  
  ****************
  Analysis Options
  ****************
  Flow Units ............... CFS
  Process Models:
    Rainfall/Runoff ........ NO
    RDII ................... NO
    Snowmelt ............... NO
    Groundwater ............ NO
    Flow Routing ........... YES
    Ponding Allowed ........ NO
    Water Quality .......... NO
  Flow Routing Method ...... DYNWAVE
  Surcharge Method ......... EXTRAN
  Starting Date ............ 01/01/2002 00:00:00
  Ending Date .............. 01/01/2002 12:00:00
  Antecedent Dry Days ...... 5.0
  Report Time Step ......... 00:30:00
  Routing Time Step ........ 10.00 sec
  Variable Time Step ....... YES
  Maximum Trials ........... 8
  Number of Threads ........ 1
  Head Tolerance ........... 0.005000 ft
  
  
  **************************        Volume        Volume
  Flow Routing Continuity        acre-feet      10^6 gal
  **************************     ---------     ---------
  Dry Weather Inflow .......        20.166         6.572
  Wet Weather Inflow .......         0.000         0.000
  Groundwater Inflow .......         0.000         0.000
  RDII Inflow ..............         0.000         0.000
  External Inflow ..........         0.000         0.000
  External Outflow .........        19.379         6.315
  Flooding Loss ............         0.000         0.000
  Evaporation Loss .........         0.000         0.000
  Exfiltration Loss ........         0.000         0.000
  Initial Stored Volume ....         0.000         0.000
  Final Stored Volume ......         0.785         0.256
  Continuity Error (%) .....         0.009
  
  
  ***************************
  Time-Step Critical Elements
  ***************************
  Link 1305 (80.04%)
  Link 920 (17.37%)
  Link 5980 (2.44%)
  
  
  ********************************
  Highest Flow Instability Indexes
  ********************************
  All links are stable.
  
  
  *************************
  Routing Time Step Summary
  *************************
  Minimum Time Step           :     0.50 sec
  Average Time Step           :     4.85 sec
  Maximum Time Step           :    10.00 sec
  Percent in Steady State     :    -0.00
  Average Iterations per Step :     2.02
  Percent Not Converging      :     0.17
  
  
  ******************
  Node Depth Summary
  ******************
  
  ---------------------------------------------------------------------------------
                                 Average  Maximum  Maximum  Time of Max    Reported
                                   Depth    Depth      HGL   Occurrence   Max Depth
  Node                 Type         Feet     Feet     Feet  days hr:min        Feet
  ---------------------------------------------------------------------------------
  14-08540             JUNCTION     0.03     0.03  1103.10     0  00:39        0.03
  14-08680             JUNCTION     0.02     0.02  1097.59     0  06:26        0.02
  14-08850             JUNCTION     0.03     0.03  1084.04     0  09:56        0.03
  14-09080             JUNCTION     0.04     0.04  1070.64     0  01:15        0.04
  14-09250             JUNCTION     0.07     0.07  1058.07     0  05:24        0.07
  14-09300             JUNCTION     0.05     0.05  1063.25     0  00:50        0.05
  14-09370             JUNCTION     1.97     2.09   556.88     0  05:30        2.09
  14-09460             JUNCTION     0.10     0.10  1059.29     0  07:33        0.10
  14-09510             JUNCTION     0.07     0.07  1044.19     0  04:57        0.07
  14-09540             JUNCTION     0.07     0.07  1060.00     0  07:33        0.07
  14-09620             JUNCTION     0.03     0.03  1074.64     0  00:42        0.03
  14-09700             JUNCTION     0.03     0.03  1100.91     0  00:39        0.03
  14-09730             JUNCTION     1.80     1.92   556.83     0  04:00        1.92
  14-09760             JUNCTION     0.03     0.03  1085.56     0  11:31        0.03
  14-09780             JUNCTION     0.08     0.08  1030.25     0  02:07        0.08
  14-10060             JUNCTION     0.07     0.08  1016.22     0  02:00        0.08
  14-10430             JUNCTION     0.09     0.09  1002.83     0  08:52        0.09
  14-10580             JUNCTION     0.16     0.16  1000.06     0  02:05        0.16
  14-10590             JUNCTION     0.32     0.32   794.61     0  05:48        0.32
  14-10750             JUNCTION     0.08     0.09   998.87     0  04:43        0.09
  14-10810             JUNCTION     0.16     0.16   996.79     0  05:57        0.16
  14-10860             JUNCTION     0.31     0.32   779.64     0  09:33        0.32
  14-10940             JUNCTION     0.11     0.12   994.72     0  06:27        0.12
  14-10970             JUNCTION     0.16     0.16   995.94     0  06:10        0.16
  14-11110             JUNCTION     0.30     0.31   764.04     0  04:15        0.31
  14-11120             JUNCTION     1.88     1.99   557.86     0  09:23        1.99
  14-11200             JUNCTION     0.35     0.36   798.60     0  07:49        0.36
  14-11250             JUNCTION     1.83     1.93   557.97     0  06:16        1.93
  14-11280             JUNCTION     0.57     0.58   751.28     0  01:04        0.58
  14-11300             JUNCTION     0.12     0.12   986.33     0  09:11        0.12
  14-11370             JUNCTION     0.58     0.60   750.72     0  03:58        0.60
  14-11450             JUNCTION     0.11     0.11   980.41     0  03:55        0.11
  14-11660             JUNCTION     0.44     0.45   748.89     0  03:15        0.45
  14-11740             JUNCTION     0.34     0.36   802.64     0  02:49        0.36
  14-11820             JUNCTION     0.10     0.10   967.28     0  02:17        0.10
  14-11970             JUNCTION     0.10     0.11   953.55     0  08:18        0.11
  14-12140             JUNCTION     0.35     0.36   806.65     0  02:48        0.36
  14-12160             JUNCTION     0.44     0.46   746.43     0  09:08        0.46
  14-12190             JUNCTION     0.10     0.10   936.58     0  05:24        0.10
  14-12400             JUNCTION     0.11     0.11   910.57     0  06:12        0.11
  14-12450             JUNCTION     0.12     0.12   915.33     0  10:02        0.12
  14-12570             JUNCTION     0.35     0.36   810.44     0  02:38        0.36
  14-12630             JUNCTION     0.43     0.46   744.06     0  10:51        0.46
  14-12790             JUNCTION     0.57     0.59   811.41     0  05:32        0.59
  14-12820             JUNCTION     0.13     0.14   896.20     0  07:07        0.14
  14-12840             JUNCTION     1.99     2.06   558.86     0  10:00        2.06
  14-13020             JUNCTION     1.82     1.89   558.90     0  03:11        1.89
  14-13150             JUNCTION     0.37     0.39   741.62     0  04:26        0.39
  14-13280             JUNCTION     0.24     0.24   890.58     0  08:43        0.24
  14-13370             JUNCTION     0.27     0.28   820.20     0  08:58        0.28
  14-13400             JUNCTION     0.26     0.26   838.76     0  09:57        0.26
  14-13630             JUNCTION     0.27     0.27   824.64     0  10:32        0.27
  14-13640             JUNCTION     0.34     0.34   885.69     0  07:53        0.34
  14-13700             JUNCTION     0.50     0.51   839.89     0  07:41        0.51
  14-13830             JUNCTION     0.32     0.34   737.36     0  02:18        0.34
  14-13960             JUNCTION     0.26     0.27   829.10     0  11:59        0.27
  14-14000             JUNCTION     1.92     1.98   559.59     0  04:43        1.98
  14-14070             JUNCTION     0.51     0.52   840.63     0  07:23        0.52
  14-14400             JUNCTION     0.22     0.22   882.44     0  08:27        0.22
  14-14470             JUNCTION     0.32     0.34   728.48     0  09:33        0.34
  14-14480             JUNCTION     0.25     0.25   869.61     0  08:57        0.25
  14-14550             JUNCTION     0.25     0.25   861.86     0  06:04        0.25
  14-14660             JUNCTION     0.25     0.25   852.88     0  02:41        0.25
  14-14770             JUNCTION     0.31     0.31   844.40     0  03:33        0.31
  14-15040             JUNCTION     0.26     0.28   719.59     0  03:44        0.28
  14-15140             JUNCTION     0.49     0.51   708.37     0  04:48        0.51
  14-15260             JUNCTION     0.42     0.44   705.02     0  07:30        0.44
  14-15360             JUNCTION     0.42     0.44   698.57     0  02:33        0.44
  14-15390             JUNCTION     0.60     0.63   694.14     0  04:24        0.63
  14-15460             JUNCTION     0.52     0.55   692.67     0  03:07        0.55
  14-15470             JUNCTION     0.47     0.49   690.45     0  11:54        0.49
  14-16360             JUNCTION     1.10     1.19   686.63     0  10:06        1.19
  14-16410             JUNCTION     1.99     2.04   560.76     0  06:14        2.04
  14-16900             JUNCTION     4.45     4.48   563.79     0  04:04        4.48
  14-17370             JUNCTION     0.51     0.53   685.26     0  06:00        0.53
  14-17580             JUNCTION     0.51     0.54   676.89     0  02:15        0.54
  14-17720             JUNCTION     0.52     0.54   668.36     0  09:24        0.54
  14-17940             JUNCTION     0.51     0.54   666.29     0  08:21        0.54
  14-18070             JUNCTION     0.52     0.55   660.84     0  07:07        0.55
  14-18260             JUNCTION     0.53     0.56   644.18     0  07:28        0.56
  14-18270             JUNCTION     0.51     0.54   655.60     0  11:42        0.54
  14-18380             JUNCTION     0.53     0.56   639.10     0  06:40        0.56
  14-18400             JUNCTION     0.52     0.55   646.91     0  06:01        0.55
  14-18580             JUNCTION     0.53     0.56   630.99     0  06:07        0.56
  14-18750             JUNCTION     0.58     0.62   624.57     0  08:28        0.62
  14-18780             JUNCTION     0.56     0.59   623.12     0  04:26        0.59
  14-18820             JUNCTION     0.55     0.59   621.03     0  11:58        0.59
  14-18960             JUNCTION     0.47     0.50   615.13     0  09:29        0.50
  14-19090             JUNCTION     0.49     0.53   602.66     0  10:12        0.53
  14-19200             JUNCTION     0.55     0.58   595.98     0  11:16        0.58
  14-19260             JUNCTION     0.47     0.49   590.38     0  09:51        0.49
  14-19280             JUNCTION     3.67     4.41   564.79     0  00:07        3.70
  14-19390             JUNCTION     0.57     0.60   574.59     0  02:29        0.60
  14-19530             JUNCTION     5.68     6.43   564.83     0  00:07        5.71
  14-19560             JUNCTION     0.32     0.33   565.16     0  03:50        0.33
  WTP1                 OUTFALL      1.28     1.38   555.38     0  05:41        1.38
  
  
  *******************
  Node Inflow Summary
  *******************
  
  -------------------------------------------------------------------------------------------------
                                  Maximum  Maximum                  Lateral       Total        Flow
                                  Lateral    Total  Time of Max      Inflow      Inflow     Balance
                                   Inflow   Inflow   Occurrence      Volume      Volume       Error
  Node                 Type           CFS      CFS  days hr:min    10^6 gal    10^6 gal     Percent
  -------------------------------------------------------------------------------------------------
  14-08540             JUNCTION      0.01     0.01     0  00:00     0.00231     0.00231       0.226
  14-08680             JUNCTION      0.00     0.01     0  00:39      0.0004      0.0027       0.181
  14-08850             JUNCTION      0.00     0.01     0  00:43    0.000625     0.00332       0.279
  14-09080             JUNCTION      0.01     0.02     0  00:40     0.00162     0.00493       0.180
  14-09250             JUNCTION      0.02     0.06     0  09:41     0.00749      0.0192       0.253
  14-09300             JUNCTION      0.00     0.02     0  00:55    0.000904     0.00583       0.218
  14-09370             JUNCTION      0.10    20.34     0  02:41      0.0325        6.33       0.201
  14-09460             JUNCTION      0.00     0.04     0  08:25           0      0.0117       0.432
  14-09510             JUNCTION      0.01     0.07     0  05:49     0.00201      0.0211       0.217
  14-09540             JUNCTION      0.00     0.02     0  00:23    0.000348     0.00593       0.324
  14-09620             JUNCTION      0.00     0.02     0  00:39    0.000489     0.00558       0.106
  14-09700             JUNCTION      0.01     0.01     0  00:00     0.00473     0.00473       0.130
  14-09730             JUNCTION      0.00    20.23     0  06:02    0.000361        6.32       0.366
  14-09760             JUNCTION      0.00     0.02     0  00:41    0.000378      0.0051       0.149
  14-09780             JUNCTION      0.01     0.07     0  02:01     0.00213      0.0232       0.213
  14-10060             JUNCTION      0.01     0.08     0  02:12      0.0017      0.0249       0.150
  14-10430             JUNCTION      0.00     0.08     0  11:05     0.00106      0.0259       0.085
  14-10580             JUNCTION      0.02     0.10     0  11:04     0.00664      0.0325       0.304
  14-10590             JUNCTION      0.36     1.14     0  04:16       0.116       0.362       0.132
  14-10750             JUNCTION      0.00     0.10     0  01:21    0.000106      0.0325       0.040
  14-10810             JUNCTION      0.00     0.10     0  02:05     0.00028      0.0328       0.228
  14-10860             JUNCTION      0.00     1.14     0  01:43    0.000802       0.362       0.127
  14-10940             JUNCTION      0.04     0.15     0  06:40      0.0135      0.0467       0.155
  14-10970             JUNCTION      0.00     0.10     0  06:42    0.000552      0.0333       0.289
  14-11110             JUNCTION      0.01     1.15     0  03:58     0.00281       0.365       0.061
  14-11120             JUNCTION      0.00    20.23     0  07:50    0.000566        6.34       0.297
  14-11200             JUNCTION      0.01     0.78     0  04:15     0.00167       0.246       0.174
  14-11250             JUNCTION      0.02    20.23     0  07:22     0.00532        6.35       0.302
  14-11280             JUNCTION      0.01     1.16     0  01:54     0.00187       0.366       0.121
  14-11300             JUNCTION      0.00     0.15     0  12:00     0.00147      0.0481       0.135
  14-11370             JUNCTION      0.01     1.17     0  09:14     0.00281       0.369       0.314
  14-11450             JUNCTION      0.00     0.15     0  06:41     0.00115      0.0492       0.158
  14-11660             JUNCTION      0.03     1.20     0  08:35      0.0101       0.378       0.257
  14-11740             JUNCTION      0.00     0.78     0  04:52     0.00161       0.245       0.174
  14-11820             JUNCTION      0.00     0.16     0  06:28    0.000902        0.05       0.121
  14-11970             JUNCTION      0.00     0.16     0  08:03    0.000864      0.0508       0.148
  14-12140             JUNCTION      0.00     0.77     0  02:18     0.00158       0.244       0.175
  14-12160             JUNCTION      0.01     1.21     0  06:11     0.00306        0.38       0.245
  14-12190             JUNCTION      0.00     0.16     0  02:42     0.00132       0.052       0.117
  14-12400             JUNCTION      0.02     0.18     0  02:37     0.00578      0.0586       0.105
  14-12450             JUNCTION      0.00     0.17     0  06:30    0.000931      0.0529       0.073
  14-12570             JUNCTION      0.00     0.77     0  07:02      0.0012       0.242       0.172
  14-12630             JUNCTION      0.00     1.21     0  10:21           0       0.379       0.245
  14-12790             JUNCTION      0.00     0.76     0  01:45     0.00156       0.242       0.194
  14-12820             JUNCTION      0.00     0.19     0  07:04     0.00073      0.0593       0.084
  14-12840             JUNCTION      0.04    20.22     0  05:09      0.0141        6.37       0.268
  14-13020             JUNCTION      0.01    20.17     0  05:27     0.00233        6.36       0.085
  14-13150             JUNCTION      0.00     1.21     0  10:57           0       0.378       0.198
  14-13280             JUNCTION      0.44     0.63     0  03:56       0.142       0.201       0.076
  14-13370             JUNCTION      0.05     0.76     0  07:33      0.0152        0.24       0.120
  14-13400             JUNCTION      0.02     0.69     0  10:50     0.00666       0.218       0.132
  14-13630             JUNCTION      0.00     0.71     0  01:35    0.000812       0.225       0.066
  14-13640             JUNCTION      0.00     0.63     0  01:28    0.000459       0.201       0.201
  14-13700             JUNCTION      0.00     0.66     0  11:46     0.00108       0.211       0.182
  14-13830             JUNCTION      0.00     1.21     0  10:36           0       0.377       0.149
  14-13960             JUNCTION      0.02     0.71     0  02:50     0.00732       0.225       0.064
  14-14000             JUNCTION      0.00    20.16     0  07:23    0.000729        6.38       0.369
  14-14070             JUNCTION      0.01     0.66     0  01:40     0.00468       0.211       0.169
  14-14400             JUNCTION      0.00     0.63     0  05:28    0.000576       0.201       0.107
  14-14470             JUNCTION      0.00     1.21     0  01:55           0       0.377       0.150
  14-14480             JUNCTION      0.00     0.63     0  02:23     0.00128       0.202       0.117
  14-14550             JUNCTION      0.00     0.64     0  07:33     0.00158       0.204       0.134
  14-14660             JUNCTION      0.00     0.64     0  01:27     0.00159       0.205       0.126
  14-14770             JUNCTION      0.00     0.65     0  04:03     0.00149       0.206       0.153
  14-15040             JUNCTION      0.00     1.21     0  09:11           0       0.376       0.035
  14-15140             JUNCTION      0.62     1.83     0  02:01       0.201       0.577       0.188
  14-15260             JUNCTION      0.00     1.83     0  04:25           0       0.576       0.139
  14-15360             JUNCTION      0.00     1.83     0  02:52           0       0.575       0.031
  14-15390             JUNCTION      0.05     1.88     0  06:22      0.0158       0.591       0.151
  14-15460             JUNCTION      0.01     1.89     0  05:24      0.0024       0.592       0.048
  14-15470             JUNCTION      0.01     1.90     0  05:58     0.00433       0.596       0.126
  14-16360             JUNCTION      0.00     1.90     0  02:09      0.0012       0.597       0.528
  14-16410             JUNCTION      0.07    20.16     0  02:21      0.0215        6.42       0.595
  14-16900             JUNCTION      0.03    21.26     0  00:08      0.0112        6.43       0.558
  14-17370             JUNCTION      0.46     2.36     0  05:59       0.149       0.742       0.152
  14-17580             JUNCTION      0.01     2.38     0  02:04     0.00412       0.745       0.147
  14-17720             JUNCTION      0.00     2.38     0  02:47           0       0.744       0.036
  14-17940             JUNCTION      0.02     2.39     0  05:50     0.00491       0.749       0.094
  14-18070             JUNCTION      0.03     2.42     0  04:25     0.00932       0.757       0.096
  14-18260             JUNCTION      0.02     2.45     0  10:12     0.00516       0.764       0.099
  14-18270             JUNCTION      0.01     2.43     0  05:14      0.0021       0.759       0.149
  14-18380             JUNCTION      0.03     2.48     0  08:27     0.00988       0.773       0.149
  14-18400             JUNCTION      0.00     2.43     0  04:18     0.00123       0.759       0.048
  14-18580             JUNCTION      0.01     2.48     0  03:53      0.0021       0.774       0.121
  14-18750             JUNCTION      0.09     2.57     0  07:41      0.0294       0.802       0.031
  14-18780             JUNCTION      0.00     2.58     0  06:57    0.000162       0.802       0.041
  14-18820             JUNCTION      0.03     2.60     0  07:00     0.00845        0.81       0.110
  14-18960             JUNCTION      0.02     2.62     0  04:14     0.00719       0.817       0.125
  14-19090             JUNCTION      0.02     2.64     0  04:50     0.00637       0.822       0.075
  14-19200             JUNCTION      0.65     3.29     0  02:32        0.21        1.03       0.045
  14-19260             JUNCTION      0.01     3.30     0  07:53     0.00336        1.03       0.073
  14-19280             JUNCTION      0.00   158.87     0  00:00    0.000659        6.45       0.437
  14-19390             JUNCTION      0.01     3.31     0  03:48     0.00331        1.04       0.091
  14-19530             JUNCTION     16.74    20.06     0  02:20        5.41        6.45       0.003
  14-19560             JUNCTION      0.00     3.32     0  02:24    0.000846        1.04       0.009
  WTP1                 OUTFALL       0.00    20.34     0  05:41           0        6.31       0.000
  
  
  **********************
  Node Surcharge Summary
  **********************
  
  Surcharging occurs when water rises above the top of the highest conduit.
  ---------------------------------------------------------------------
                                               Max. Height   Min. Depth
                                   Hours       Above Crown    Below Rim
  Node                 Type      Surcharged           Feet         Feet
  ---------------------------------------------------------------------
  14-16360             JUNCTION       11.14          0.092       15.048
  14-19280             JUNCTION       11.78          0.806       10.214
  14-19530             JUNCTION       11.34          0.764       12.166
  
  
  *********************
  Node Flooding Summary
  *********************
  
  No nodes were flooded.
  
  
  ***********************
  Outfall Loading Summary
  ***********************
  
  -----------------------------------------------------------
                         Flow       Avg       Max       Total
                         Freq      Flow      Flow      Volume
  Outfall Node           Pcnt       CFS       CFS    10^6 gal
  -----------------------------------------------------------
  WTP1                  94.31     19.73     20.34       6.315
  -----------------------------------------------------------
  System                94.31     19.73     20.34       6.315
  
  
  ********************
  Link Flow Summary
  ********************
  
  -----------------------------------------------------------------------------
                                 Maximum  Time of Max   Maximum    Max/    Max/
                                  |Flow|   Occurrence   |Veloc|    Full    Full
  Link                 Type          CFS  days hr:min    ft/sec    Flow   Depth
  -----------------------------------------------------------------------------
  1018                 CONDUIT     20.22     0  07:22      3.88    0.60    0.55
  1022                 CONDUIT     20.23     0  07:50      3.88    0.57    0.55
  1062                 CONDUIT      3.29     0  07:53      8.13    0.83    0.70
  1104                 CONDUIT      2.64     0  02:32      7.24    0.73    0.64
  1207                 CONDUIT      2.62     0  04:50      7.63    0.68    0.60
  1270                 CONDUIT      2.60     0  04:14      6.31    0.85    0.71
  1291                 CONDUIT      2.58     0  07:00      6.19    0.86    0.71
  1305                 CONDUIT      2.57     0  06:57      5.93    0.90    0.74
  1406                 CONDUIT      2.48     0  07:41      6.32    0.80    0.68
  1498                 CONDUIT      2.48     0  03:53      6.34    0.79    0.67
  1582                 CONDUIT      2.43     0  10:12      6.37    0.77    0.66
  1658                 CONDUIT      2.43     0  04:18      6.45    0.76    0.65
  1701                 CONDUIT      2.42     0  05:14      6.31    0.78    0.66
  1748                 CONDUIT      2.39     0  04:25      6.41    0.75    0.65
  1764                 CONDUIT      2.38     0  05:50      6.30    0.76    0.65
  1862                 CONDUIT      2.38     0  02:47      6.42    0.74    0.64
  1941                 CONDUIT      1.90     0  05:59      2.85    1.31    0.79
  2174                 CONDUIT      1.21     0  02:01      6.08    0.24    0.39
  2246                 CONDUIT      1.21     0  09:11      5.71    0.35    0.41
  2326                 CONDUIT      1.21     0  01:55      5.74    0.35    0.41
  2445                 CONDUIT      1.21     0  10:57      3.47    0.43    0.46
  2500                 CONDUIT      1.21     0  10:21      3.47    0.43    0.46
  2574                 CONDUIT      1.20     0  06:11      3.46    0.42    0.45
  2662                 CONDUIT      1.17     0  08:35      3.11    0.81    0.65
  2694                 CONDUIT      1.16     0  09:14      3.09    0.81    0.65
  2759                 CONDUIT      1.15     0  01:54      5.38    0.43    0.59
  2895                 CONDUIT      1.14     0  03:58      6.93    0.46    0.48
  2987                 CONDUIT      0.78     0  04:16      4.03    0.57    0.54
  3048                 CONDUIT      0.78     0  04:15      4.08    0.56    0.54
  3108                 CONDUIT      0.77     0  04:52      4.06    0.56    0.53
  3178                 CONDUIT      0.77     0  02:18      4.01    0.56    0.54
  3212                 CONDUIT      0.76     0  07:02      2.71    1.01    0.75
  3285                 CONDUIT      0.76     0  01:45      5.08    0.37    0.50
  3320                 CONDUIT      0.71     0  07:33      5.30    0.35    0.41
  3355                 CONDUIT      0.71     0  01:35      5.39    0.34    0.40
  3420                 CONDUIT      0.69     0  02:50      5.41    0.32    0.39
  3452                 CONDUIT      0.66     0  10:50      2.66    0.87    0.67
  3468                 CONDUIT      0.66     0  11:46      2.55    0.90    0.70
  3478                 CONDUIT      0.65     0  01:40      4.00    0.45    0.47
  3595                 CONDUIT      0.64     0  01:27      5.24    0.31    0.38
  3673                 CONDUIT      0.63     0  07:33      5.20    0.31    0.38
  3727                 CONDUIT      0.18     0  07:04      4.88    0.06    0.17
  3737                 CONDUIT      0.19     0  04:55      3.67    0.09    0.20
  3742                 CONDUIT      0.63     0  01:28      5.48    0.28    0.36
  3755                 CONDUIT      0.63     0  02:23      6.09    0.24    0.34
  3756                 CONDUIT      0.63     0  05:28      3.47    0.52    0.51
  3776                 CONDUIT      0.17     0  02:37      3.90    0.07    0.18
  3827                 CONDUIT      0.16     0  06:30      5.11    0.05    0.15
  3891                 CONDUIT      0.16     0  02:42      4.50    0.05    0.16
  3950                 CONDUIT      0.16     0  08:03      4.47    0.05    0.16
  3996                 CONDUIT      0.15     0  06:28      4.11    0.06    0.16
  4045                 CONDUIT      0.15     0  12:00      3.64    0.06    0.17
  4090                 CONDUIT      0.10     0  06:40      1.71    0.12    0.23
  4131                 CONDUIT      0.10     0  06:42      1.69    0.12    0.23
  4135                 CONDUIT      0.10     0  02:05      3.91    0.03    0.13
  4179                 CONDUIT      0.08     0  11:05      3.58    0.03    0.11
  4182                 CONDUIT      0.10     0  01:21      1.69    0.12    0.23
  4183                 CONDUIT      0.08     0  11:04      2.77    0.04    0.14
  4202                 CONDUIT      0.07     0  02:12      3.26    0.03    0.11
  4248/new             CONDUIT      0.07     0  02:01      3.16    0.03    0.11
  4304                 CONDUIT      0.04     0  09:41      1.24    0.04    0.14
  4320                 CONDUIT      0.02     0  12:00      1.69    0.01    0.07
  4328                 CONDUIT      0.01     0  00:43      2.05    0.00    0.04
  4335                 CONDUIT      0.02     0  00:55      2.01    0.01    0.06
  4336                 CONDUIT      0.01     0  00:40      1.90    0.00    0.04
  4339                 CONDUIT      0.02     0  00:23      2.84    0.00    0.05
  4345                 CONDUIT      0.01     0  00:39      1.48    0.00    0.04
  4352                 CONDUIT      0.02     0  00:39      2.35    0.00    0.05
  4372                 CONDUIT      0.01     0  00:41      2.63    0.00    0.04
  4927                 CONDUIT     20.34     0  05:41      5.60    0.35    0.40
  4931                 CONDUIT      3.30     0  03:48      9.83    0.66    0.59
  4984                 CONDUIT      2.45     0  08:27      6.22    0.80    0.68
  5105                 CONDUIT      1.21     0  10:36      4.31    0.32    0.39
  5158                 CONDUIT      1.14     0  01:43      6.80    0.47    0.49
  5237                 CONDUIT      0.64     0  04:03      5.25    0.31    0.38
  5297                 CONDUIT      0.15     0  06:41      3.45    0.07    0.18
  5328                 CONDUIT      0.06     0  05:49      2.98    0.02    0.11
  5330                 CONDUIT      0.02     0  04:23      1.03    0.02    0.10
  5776                 CONDUIT      1.88     0  05:24      3.76    0.71    0.61
  5777                 CONDUIT      1.83     0  06:22      5.52    0.40    0.44
  5780                 CONDUIT      1.83     0  02:52      5.56    0.39    0.44
  5785                 CONDUIT      1.83     0  04:25      4.57    0.51    0.51
  5967                 CONDUIT     20.23     0  02:41      4.43    0.28    0.48
  5971                 CONDUIT     20.16     0  05:27      4.00    0.65    0.54
  5973                 CONDUIT     20.16     0  07:23      3.84    0.64    0.56
  5980                 CONDUIT     20.17     0  05:09      3.80    0.38    0.56
  6139                 CONDUIT      1.89     0  05:58      4.28    0.58    0.55
  6168                 CONDUIT     21.23     0  00:08      8.68    0.55    1.00
  6169                 CONDUIT     20.23     0  06:02      3.67    0.62    0.56
  7128                 CONDUIT      3.32     0  02:20      8.13    0.34    0.70
  7135                 CONDUIT      2.36     0  02:04      6.41    0.74    0.64
  7475                 CONDUIT      1.90     0  02:09      3.63    0.48    0.75
  920                  CONDUIT    158.87     0  00:00     46.33    4.13    1.00
  934                  CONDUIT     20.10     0  02:21     10.74    0.13    0.40
  979                  CONDUIT      3.31     0  02:24      7.84    0.87    0.72
  
  
  ***************************
  Flow Classification Summary
  ***************************
  
  -------------------------------------------------------------------------------------
                      Adjusted    ---------- Fraction of Time in Flow Class ---------- 
                       /Actual         Up    Down  Sub   Sup   Up    Down  Norm  Inlet 
  Conduit               Length    Dry  Dry   Dry   Crit  Crit  Crit  Crit  Ltd   Ctrl  
  -------------------------------------------------------------------------------------
  1018                    1.00   0.00  0.00  0.00  1.00  0.00  0.00  0.00  0.00  0.00
  1022                    1.00   0.00  0.00  0.00  0.96  0.00  0.00  0.04  0.00  0.00
  1062                    1.00   0.00  0.00  0.00  0.00  0.00  0.00  1.00  0.00  0.00
  1104                    1.00   0.00  0.00  0.00  0.00  0.00  0.00  1.00  0.00  0.00
  1207                    1.00   0.00  0.00  0.00  0.00  0.00  0.00  1.00  0.00  0.00
  1270                    1.00   0.00  0.00  0.00  0.00  0.00  0.00  1.00  0.00  0.00
  1291                    1.00   0.00  0.00  0.00  0.00  0.00  0.00  1.00  0.00  0.00
  1305                    1.00   0.00  0.00  0.00  0.00  0.00  0.00  1.00  0.00  0.00
  1406                    1.00   0.00  0.00  0.00  0.00  0.00  0.00  1.00  0.00  0.00
  1498                    1.00   0.00  0.00  0.00  0.00  0.00  0.00  1.00  0.00  0.00
  1582                    1.00   0.00  0.00  0.00  0.00  0.00  0.00  1.00  0.00  0.00
  1658                    1.00   0.00  0.00  0.00  0.00  0.00  0.00  1.00  0.00  0.00
  1701                    1.00   0.00  0.00  0.00  0.00  0.00  0.00  1.00  0.00  0.00
  1748                    1.00   0.00  0.00  0.00  0.00  0.00  0.00  1.00  0.00  0.00
  1764                    1.00   0.00  0.00  0.00  0.00  0.00  0.00  1.00  0.00  0.00
  1862                    1.00   0.00  0.00  0.00  0.00  0.00  0.00  1.00  0.00  0.00
  1941                    1.00   0.00  0.00  0.00  0.01  0.00  0.00  0.99  0.01  0.00
  2174                    1.00   0.00  0.01  0.00  0.02  0.97  0.00  0.00  0.99  0.00
  2246                    1.00   0.01  0.00  0.00  0.00  0.00  0.00  0.99  0.00  0.00
  2326                    1.00   0.00  0.00  0.00  0.00  0.00  0.00  1.00  0.00  0.00
  2445                    1.00   0.00  0.00  0.00  0.00  0.00  0.00  1.00  0.00  0.00
  2500                    1.00   0.00  0.00  0.00  0.00  0.00  0.00  1.00  0.00  0.00
  2574                    1.00   0.00  0.00  0.00  0.00  0.00  0.00  1.00  0.00  0.00
  2662                    1.00   0.00  0.00  0.00  0.00  0.00  0.00  1.00  0.00  0.00
  2694                    1.00   0.00  0.00  0.00  0.89  0.00  0.00  0.11  0.00  0.00
  2759                    1.00   0.00  0.00  0.00  0.00  0.99  0.00  0.01  0.99  0.00
  2895                    1.00   0.00  0.00  0.00  0.00  0.00  0.00  1.00  0.00  0.00
  2987                    1.00   0.00  0.00  0.00  0.00  0.00  0.00  1.00  0.00  0.00
  3048                    1.00   0.00  0.00  0.00  0.00  0.00  0.00  1.00  0.00  0.00
  3108                    1.00   0.00  0.00  0.00  0.00  0.00  0.00  1.00  0.00  0.00
  3178                    1.00   0.00  0.00  0.00  0.00  0.00  0.00  1.00  0.00  0.00
  3212                    1.00   0.00  0.00  0.00  0.00  0.00  0.00  1.00  0.00  0.00
  3285                    1.00   0.00  0.00  0.00  0.00  0.97  0.00  0.03  0.98  0.00
  3320                    1.00   0.00  0.00  0.00  0.00  0.00  0.00  1.00  0.00  0.00
  3355                    1.00   0.00  0.00  0.00  0.00  0.00  0.00  1.00  0.00  0.00
  3420                    1.00   0.00  0.00  0.00  0.00  0.00  0.00  1.00  0.00  0.00
  3452                    1.00   0.00  0.00  0.00  0.00  0.00  0.00  1.00  0.00  0.00
  3468                    1.00   0.00  0.00  0.00  0.95  0.00  0.00  0.05  0.00  0.00
  3478                    1.00   0.00  0.00  0.00  0.00  0.91  0.00  0.09  0.96  0.00
  3595                    1.00   0.00  0.00  0.00  0.00  0.00  0.00  1.00  0.00  0.00
  3673                    1.00   0.00  0.00  0.00  0.00  0.00  0.00  1.00  0.00  0.00
  3727                    1.00   0.00  0.00  0.00  0.00  0.00  0.00  1.00  0.00  0.00
  3737                    1.00   0.00  0.00  0.00  0.00  0.03  0.00  0.97  0.02  0.00
  3742                    1.00   0.00  0.00  0.00  0.00  0.90  0.00  0.10  0.96  0.00
  3755                    1.00   0.00  0.00  0.00  0.00  0.00  0.00  1.00  0.00  0.00
  3756                    1.00   0.00  0.00  0.00  0.00  0.00  0.00  1.00  0.00  0.00
  3776                    1.00   0.00  0.00  0.00  0.00  0.00  0.00  1.00  0.00  0.00
  3827                    1.00   0.00  0.00  0.00  0.00  0.00  0.00  1.00  0.00  0.00
  3891                    1.00   0.00  0.00  0.00  0.00  0.00  0.00  1.00  0.00  0.00
  3950                    1.00   0.00  0.00  0.00  0.00  0.00  0.00  1.00  0.00  0.00
  3996                    1.00   0.00  0.00  0.00  0.00  0.00  0.00  1.00  0.00  0.00
  4045                    1.00   0.00  0.00  0.00  0.00  0.00  0.00  1.00  0.00  0.00
  4090                    1.00   0.00  0.00  0.00  0.00  0.00  0.00  1.00  0.00  0.00
  4131                    1.00   0.00  0.00  0.00  0.00  0.00  0.00  1.00  0.00  0.00
  4135                    1.84   0.00  0.00  0.00  0.00  0.00  0.00  1.00  0.00  0.00
  4179                    1.00   0.00  0.00  0.00  0.00  0.00  0.00  1.00  0.00  0.00
  4182                    1.00   0.00  0.00  0.00  0.00  0.00  0.00  1.00  0.00  0.00
  4183                    1.00   0.00  0.00  0.00  0.00  0.00  0.00  1.00  0.00  0.00
  4202                    1.00   0.00  0.00  0.00  0.00  0.00  0.00  1.00  0.00  0.00
  4248/new                1.00   0.00  0.00  0.00  0.00  0.00  0.00  1.00  0.00  0.00
  4304                    1.00   0.00  0.00  0.00  0.00  0.00  0.00  1.00  0.00  0.00
  4320                    1.00   0.00  0.00  0.00  0.00  0.00  0.00  1.00  0.00  0.00
  4328                    1.00   0.00  0.00  0.00  0.00  0.00  0.00  1.00  0.00  0.00
  4335                    1.00   0.00  0.00  0.00  0.00  0.00  0.00  1.00  0.00  0.00
  4336                    1.00   0.00  0.00  0.00  0.00  0.00  0.00  1.00  0.00  0.00
  4339                    1.00   0.00  0.00  0.00  0.00  0.00  0.00  1.00  0.00  0.00
  4345                    1.00   0.00  0.00  0.00  0.00  0.00  0.00  1.00  0.00  0.00
  4352                    1.00   0.00  0.00  0.00  0.00  0.00  0.00  1.00  0.00  0.00
  4372                    1.00   0.00  0.00  0.00  0.00  0.00  0.00  1.00  0.00  0.00
  4927                    1.00   0.06  0.00  0.00  0.94  0.00  0.00  0.00  0.00  0.00
  4931                    1.00   0.00  0.00  0.00  0.00  0.00  0.00  1.00  0.00  0.00
  4984                    1.00   0.00  0.00  0.00  0.00  0.00  0.00  1.00  0.00  0.00
  5105                    1.00   0.00  0.00  0.00  0.00  0.00  0.00  1.00  0.00  0.00
  5158                    1.00   0.00  0.00  0.00  0.00  0.00  0.00  1.00  0.00  0.00
  5237                    1.00   0.00  0.00  0.00  0.00  0.00  0.00  1.00  0.00  0.00
  5297                    1.00   0.00  0.00  0.00  0.00  0.00  0.00  1.00  0.00  0.00
  5328                    1.00   0.00  0.00  0.00  0.00  0.00  0.00  1.00  0.00  0.00
  5330                    1.00   0.00  0.00  0.00  0.00  0.00  0.00  1.00  0.00  0.00
  5776                    1.00   0.00  0.00  0.00  0.00  0.00  0.00  1.00  0.00  0.00
  5777                    1.00   0.00  0.00  0.00  0.00  0.00  0.00  1.00  0.00  0.00
  5780                    1.00   0.00  0.00  0.00  0.00  0.00  0.00  1.00  0.00  0.00
  5785                    1.00   0.00  0.00  0.00  0.00  0.00  0.00  1.00  0.00  0.00
  5967                    1.00   0.00  0.05  0.00  0.95  0.00  0.00  0.00  0.97  0.00
  5971                    1.00   0.00  0.00  0.00  0.97  0.00  0.00  0.03  0.00  0.00
  5973                    1.00   0.00  0.00  0.00  0.97  0.00  0.00  0.03  0.00  0.00
  5980                    1.06   0.00  0.00  0.00  1.00  0.00  0.00  0.00  0.01  0.00
  6139                    1.00   0.00  0.00  0.00  0.00  0.00  0.00  1.00  0.00  0.00
  6168                    1.00   0.00  0.00  0.00  1.00  0.00  0.00  0.00  0.00  0.00
  6169                    1.00   0.00  0.00  0.00  1.00  0.00  0.00  0.00  0.00  0.00
  7128                    3.59   0.00  0.00  0.00  0.03  0.97  0.00  0.00  1.00  0.00
  7135                    1.00   0.00  0.00  0.00  0.00  0.00  0.00  1.00  0.00  0.00
  7475                    1.00   0.00  0.00  0.00  0.97  0.02  0.00  0.01  0.99  0.00
  920                     1.18   0.00  0.00  0.00  1.00  0.00  0.00  0.00  0.00  0.00
  934                     1.00   0.01  0.00  0.00  0.96  0.02  0.00  0.01  0.99  0.00
  979                     1.00   0.00  0.00  0.00  0.00  0.00  0.00  1.00  0.00  0.00
  
  
  *************************
  Conduit Surcharge Summary
  *************************
  
  ----------------------------------------------------------------------------
                                                           Hours        Hours 
                         --------- Hours Full --------   Above Full   Capacity
  Conduit                Both Ends  Upstream  Dnstream   Normal Flow   Limited
  ----------------------------------------------------------------------------
  1941                        0.01     11.29      0.01     11.40         0.01
  3212                        0.01      0.01      0.01     11.35         0.01
  6168                       11.85     11.85     11.91      0.01         0.01
  7128                        0.01      0.01     12.00      0.01         0.01
  7475                        0.01      0.01     11.14      0.01         0.01
  920                        11.34     11.34     11.78      0.01         0.01
  

  Analysis begun on:  Fri Nov 29 09:07:06 2019
  Analysis ended on:  Fri Nov 29 09:07:07 2019
  Total elapsed time: 00:00:01