
  EPA STORM WATER MANAGEMENT MODEL - VERSION 5.1 (Build 5.1.013)
  --------------------------------------------------------------

  
  *********************************************************
  NOTE: The summary statistics displayed in this report are
  based on results found at every computational time step,  
  not just on results from each reporting time step.
  *********************************************************
  
  ****************
  Analysis Options
  ****************
  Flow Units ............... CFS
  Process Models:
    Rainfall/Runoff ........ NO
    RDII ................... NO
    Snowmelt ............... NO
    Groundwater ............ NO
    Flow Routing ........... YES
    Ponding Allowed ........ NO
    Water Quality .......... NO
  Flow Routing Method ...... DYNWAVE
  Surcharge Method ......... EXTRAN
  Starting Date ............ 01/01/2002 00:00:00
  Ending Date .............. 01/01/2002 12:00:00
  Antecedent Dry Days ...... 5.0
  Report Time Step ......... 00:30:00
  Routing Time Step ........ 10.00 sec
  Variable Time Step ....... YES
  Maximum Trials ........... 8
  Number of Threads ........ 1
  Head Tolerance ........... 0.005000 ft
  
  
  **************************        Volume        Volume
  Flow Routing Continuity        acre-feet      10^6 gal
  **************************     ---------     ---------
  Dry Weather Inflow .......         0.000         0.000
  Wet Weather Inflow .......         0.000         0.000
  Groundwater Inflow .......         0.000         0.000
  RDII Inflow ..............         0.000         0.000
  External Inflow ..........         0.000         0.000
  External Outflow .........         0.000         0.000
  Flooding Loss ............         0.000         0.000
  Evaporation Loss .........         0.000         0.000
  Exfiltration Loss ........         0.000         0.000
  Initial Stored Volume ....         0.000         0.000
  Final Stored Volume ......         0.000         0.000
  Continuity Error (%) .....         0.000
  
  
  ***************************
  Time-Step Critical Elements
  ***************************
  None
  
  
  ********************************
  Highest Flow Instability Indexes
  ********************************
  All links are stable.
  
  
  ******************
  Node Depth Summary
  ******************
  
  ---------------------------------------------------------------------------------
                                 Average  Maximum  Maximum  Time of Max    Reported
                                   Depth    Depth      HGL   Occurrence   Max Depth
  Node                 Type         Feet     Feet     Feet  days hr:min        Feet
  ---------------------------------------------------------------------------------
  14-08540             JUNCTION  -nan(ind)     0.00  1103.07     0  00:00        0.00
  14-08680             JUNCTION  -nan(ind)     0.00  1097.57     0  00:00        0.00
  14-08850             JUNCTION  -nan(ind)     0.00  1084.01     0  00:00        0.00
  14-09080             JUNCTION  -nan(ind)     0.00  1070.60     0  00:00        0.00
  14-09250             JUNCTION  -nan(ind)     0.00  1058.00     0  00:00        0.00
  14-09300             JUNCTION  -nan(ind)     0.00  1063.20     0  00:00        0.00
  14-09370             JUNCTION  -nan(ind)     0.00   554.79     0  00:00        0.00
  14-09460             JUNCTION  -nan(ind)     0.00  1059.19     0  00:00        0.00
  14-09510             JUNCTION  -nan(ind)     0.00  1044.12     0  00:00        0.00
  14-09540             JUNCTION  -nan(ind)     0.00  1059.93     0  00:00        0.00
  14-09620             JUNCTION  -nan(ind)     0.00  1074.61     0  00:00        0.00
  14-09700             JUNCTION  -nan(ind)     0.00  1100.88     0  00:00        0.00
  14-09730             JUNCTION  -nan(ind)     0.00   554.91     0  00:00        0.00
  14-09760             JUNCTION  -nan(ind)     0.00  1085.53     0  00:00        0.00
  14-09780             JUNCTION  -nan(ind)     0.00  1030.17     0  00:00        0.00
  14-10060             JUNCTION  -nan(ind)     0.00  1016.14     0  00:00        0.00
  14-10430             JUNCTION  -nan(ind)     0.00  1002.74     0  00:00        0.00
  14-10580             JUNCTION  -nan(ind)     0.00   999.90     0  00:00        0.00
  14-10590             JUNCTION  -nan(ind)     0.00   794.29     0  00:00        0.00
  14-10750             JUNCTION  -nan(ind)     0.00   998.78     0  00:00        0.00
  14-10810             JUNCTION  -nan(ind)     0.00   996.63     0  00:00        0.00
  14-10860             JUNCTION  -nan(ind)     0.00   779.32     0  00:00        0.00
  14-10940             JUNCTION  -nan(ind)     0.00   994.60     0  00:00        0.00
  14-10970             JUNCTION  -nan(ind)     0.00   995.78     0  00:00        0.00
  14-11110             JUNCTION  -nan(ind)     0.00   763.73     0  00:00        0.00
  14-11120             JUNCTION  -nan(ind)     0.00   555.87     0  00:00        0.00
  14-11200             JUNCTION  -nan(ind)     0.00   798.24     0  00:00        0.00
  14-11250             JUNCTION  -nan(ind)     0.00   556.04     0  00:00        0.00
  14-11280             JUNCTION  -nan(ind)     0.00   750.70     0  00:00        0.00
  14-11300             JUNCTION  -nan(ind)     0.00   986.21     0  00:00        0.00
  14-11370             JUNCTION  -nan(ind)     0.00   750.12     0  00:00        0.00
  14-11450             JUNCTION  -nan(ind)     0.00   980.30     0  00:00        0.00
  14-11660             JUNCTION  -nan(ind)     0.00   748.44     0  00:00        0.00
  14-11740             JUNCTION  -nan(ind)     0.00   802.28     0  00:00        0.00
  14-11820             JUNCTION  -nan(ind)     0.00   967.18     0  00:00        0.00
  14-11970             JUNCTION  -nan(ind)     0.00   953.44     0  00:00        0.00
  14-12140             JUNCTION  -nan(ind)     0.00   806.29     0  00:00        0.00
  14-12160             JUNCTION  -nan(ind)     0.00   745.97     0  00:00        0.00
  14-12190             JUNCTION  -nan(ind)     0.00   936.48     0  00:00        0.00
  14-12400             JUNCTION  -nan(ind)     0.00   910.46     0  00:00        0.00
  14-12450             JUNCTION  -nan(ind)     0.00   915.21     0  00:00        0.00
  14-12570             JUNCTION  -nan(ind)     0.00   810.08     0  00:00        0.00
  14-12630             JUNCTION  -nan(ind)     0.00   743.60     0  00:00        0.00
  14-12790             JUNCTION  -nan(ind)     0.00   810.82     0  00:00        0.00
  14-12820             JUNCTION  -nan(ind)     0.00   896.06     0  00:00        0.00
  14-12840             JUNCTION  -nan(ind)     0.00   556.80     0  00:00        0.00
  14-13020             JUNCTION  -nan(ind)     0.00   557.01     0  00:00        0.00
  14-13150             JUNCTION  -nan(ind)     0.00   741.23     0  00:00        0.00
  14-13280             JUNCTION  -nan(ind)     0.00   890.34     0  00:00        0.00
  14-13370             JUNCTION  -nan(ind)     0.00   819.92     0  00:00        0.00
  14-13400             JUNCTION  -nan(ind)     0.00   838.50     0  00:00        0.00
  14-13630             JUNCTION  -nan(ind)     0.00   824.37     0  00:00        0.00
  14-13640             JUNCTION  -nan(ind)     0.00   885.35     0  00:00        0.00
  14-13700             JUNCTION  -nan(ind)     0.00   839.38     0  00:00        0.00
  14-13830             JUNCTION  -nan(ind)     0.00   737.02     0  00:00        0.00
  14-13960             JUNCTION  -nan(ind)     0.00   828.83     0  00:00        0.00
  14-14000             JUNCTION  -nan(ind)     0.00   557.61     0  00:00        0.00
  14-14070             JUNCTION  -nan(ind)     0.00   840.11     0  00:00        0.00
  14-14400             JUNCTION  -nan(ind)     0.00   882.22     0  00:00        0.00
  14-14470             JUNCTION  -nan(ind)     0.00   728.14     0  00:00        0.00
  14-14480             JUNCTION  -nan(ind)     0.00   869.36     0  00:00        0.00
  14-14550             JUNCTION  -nan(ind)     0.00   861.61     0  00:00        0.00
  14-14660             JUNCTION  -nan(ind)     0.00   852.63     0  00:00        0.00
  14-14770             JUNCTION  -nan(ind)     0.00   844.09     0  00:00        0.00
  14-15040             JUNCTION  -nan(ind)     0.00   719.31     0  00:00        0.00
  14-15140             JUNCTION  -nan(ind)     0.00   707.86     0  00:00        0.00
  14-15260             JUNCTION  -nan(ind)     0.00   704.58     0  00:00        0.00
  14-15360             JUNCTION  -nan(ind)     0.00   698.13     0  00:00        0.00
  14-15390             JUNCTION  -nan(ind)     0.00   693.51     0  00:00        0.00
  14-15460             JUNCTION  -nan(ind)     0.00   692.12     0  00:00        0.00
  14-15470             JUNCTION  -nan(ind)     0.00   689.96     0  00:00        0.00
  14-16360             JUNCTION  -nan(ind)     0.00   685.44     0  00:00        0.00
  14-16410             JUNCTION  -nan(ind)     0.00   558.72     0  00:00        0.00
  14-16900             JUNCTION  -nan(ind)     0.00   559.31     0  00:00        0.00
  14-17370             JUNCTION  -nan(ind)     0.00   684.73     0  00:00        0.00
  14-17580             JUNCTION  -nan(ind)     0.00   676.35     0  00:00        0.00
  14-17720             JUNCTION  -nan(ind)     0.00   667.82     0  00:00        0.00
  14-17940             JUNCTION  -nan(ind)     0.00   665.75     0  00:00        0.00
  14-18070             JUNCTION  -nan(ind)     0.00   660.29     0  00:00        0.00
  14-18260             JUNCTION  -nan(ind)     0.00   643.62     0  00:00        0.00
  14-18270             JUNCTION  -nan(ind)     0.00   655.06     0  00:00        0.00
  14-18380             JUNCTION  -nan(ind)     0.00   638.54     0  00:00        0.00
  14-18400             JUNCTION  -nan(ind)     0.00   646.36     0  00:00        0.00
  14-18580             JUNCTION  -nan(ind)     0.00   630.43     0  00:00        0.00
  14-18750             JUNCTION  -nan(ind)     0.00   623.95     0  00:00        0.00
  14-18780             JUNCTION  -nan(ind)     0.00   622.53     0  00:00        0.00
  14-18820             JUNCTION  -nan(ind)     0.00   620.44     0  00:00        0.00
  14-18960             JUNCTION  -nan(ind)     0.00   614.63     0  00:00        0.00
  14-19090             JUNCTION  -nan(ind)     0.00   602.13     0  00:00        0.00
  14-19200             JUNCTION  -nan(ind)     0.00   595.40     0  00:00        0.00
  14-19260             JUNCTION  -nan(ind)     0.00   589.89     0  00:00        0.00
  14-19280             JUNCTION  -nan(ind)     0.00   560.38     0  00:00        0.00
  14-19390             JUNCTION  -nan(ind)     0.00   573.99     0  00:00        0.00
  14-19530             JUNCTION  -nan(ind)     0.00   558.40     0  00:00        0.00
  14-19560             JUNCTION  -nan(ind)     0.00   564.83     0  00:00        0.00
  WTP1                 OUTFALL   -nan(ind)     0.00   554.00     0  00:00        0.00
  
  
  *******************
  Node Inflow Summary
  *******************
  
  -------------------------------------------------------------------------------------------------
                                  Maximum  Maximum                  Lateral       Total        Flow
                                  Lateral    Total  Time of Max      Inflow      Inflow     Balance
                                   Inflow   Inflow   Occurrence      Volume      Volume       Error
  Node                 Type           CFS      CFS  days hr:min    10^6 gal    10^6 gal     Percent
  -------------------------------------------------------------------------------------------------
  14-08540             JUNCTION      0.00     0.00     0  00:00           0           0       0.000 gal
  14-08680             JUNCTION      0.00     0.00     0  00:00           0           0       0.000 gal
  14-08850             JUNCTION      0.00     0.00     0  00:00           0           0       0.000 gal
  14-09080             JUNCTION      0.00     0.00     0  00:00           0           0       0.000 gal
  14-09250             JUNCTION      0.00     0.00     0  00:00           0           0       0.000 gal
  14-09300             JUNCTION      0.00     0.00     0  00:00           0           0       0.000 gal
  14-09370             JUNCTION      0.00     0.00     0  00:00           0           0       0.000 gal
  14-09460             JUNCTION      0.00     0.00     0  00:00           0           0       0.000 gal
  14-09510             JUNCTION      0.00     0.00     0  00:00           0           0       0.000 gal
  14-09540             JUNCTION      0.00     0.00     0  00:00           0           0       0.000 gal
  14-09620             JUNCTION      0.00     0.00     0  00:00           0           0       0.000 gal
  14-09700             JUNCTION      0.00     0.00     0  00:00           0           0       0.000 gal
  14-09730             JUNCTION      0.00     0.00     0  00:00           0           0       0.000 gal
  14-09760             JUNCTION      0.00     0.00     0  00:00           0           0       0.000 gal
  14-09780             JUNCTION      0.00     0.00     0  00:00           0           0       0.000 gal
  14-10060             JUNCTION      0.00     0.00     0  00:00           0           0       0.000 gal
  14-10430             JUNCTION      0.00     0.00     0  00:00           0           0       0.000 gal
  14-10580             JUNCTION      0.00     0.00     0  00:00           0           0       0.000 gal
  14-10590             JUNCTION      0.00     0.00     0  00:00           0           0       0.000 gal
  14-10750             JUNCTION      0.00     0.00     0  00:00           0           0       0.000 gal
  14-10810             JUNCTION      0.00     0.00     0  00:00           0           0       0.000 gal
  14-10860             JUNCTION      0.00     0.00     0  00:00           0           0       0.000 gal
  14-10940             JUNCTION      0.00     0.00     0  00:00           0           0       0.000 gal
  14-10970             JUNCTION      0.00     0.00     0  00:00           0           0       0.000 gal
  14-11110             JUNCTION      0.00     0.00     0  00:00           0           0       0.000 gal
  14-11120             JUNCTION      0.00     0.00     0  00:00           0           0       0.000 gal
  14-11200             JUNCTION      0.00     0.00     0  00:00           0           0       0.000 gal
  14-11250             JUNCTION      0.00     0.00     0  00:00           0           0       0.000 gal
  14-11280             JUNCTION      0.00     0.00     0  00:00           0           0       0.000 gal
  14-11300             JUNCTION      0.00     0.00     0  00:00           0           0       0.000 gal
  14-11370             JUNCTION      0.00     0.00     0  00:00           0           0       0.000 gal
  14-11450             JUNCTION      0.00     0.00     0  00:00           0           0       0.000 gal
  14-11660             JUNCTION      0.00     0.00     0  00:00           0           0       0.000 gal
  14-11740             JUNCTION      0.00     0.00     0  00:00           0           0       0.000 gal
  14-11820             JUNCTION      0.00     0.00     0  00:00           0           0       0.000 gal
  14-11970             JUNCTION      0.00     0.00     0  00:00           0           0       0.000 gal
  14-12140             JUNCTION      0.00     0.00     0  00:00           0           0       0.000 gal
  14-12160             JUNCTION      0.00     0.00     0  00:00           0           0       0.000 gal
  14-12190             JUNCTION      0.00     0.00     0  00:00           0           0       0.000 gal
  14-12400             JUNCTION      0.00     0.00     0  00:00           0           0       0.000 gal
  14-12450             JUNCTION      0.00     0.00     0  00:00           0           0       0.000 gal
  14-12570             JUNCTION      0.00     0.00     0  00:00           0           0       0.000 gal
  14-12630             JUNCTION      0.00     0.00     0  00:00           0           0       0.000 gal
  14-12790             JUNCTION      0.00     0.00     0  00:00           0           0       0.000 gal
  14-12820             JUNCTION      0.00     0.00     0  00:00           0           0       0.000 gal
  14-12840             JUNCTION      0.00     0.00     0  00:00           0           0       0.000 gal
  14-13020             JUNCTION      0.00     0.00     0  00:00           0           0       0.000 gal
  14-13150             JUNCTION      0.00     0.00     0  00:00           0           0       0.000 gal
  14-13280             JUNCTION      0.00     0.00     0  00:00           0           0       0.000 gal
  14-13370             JUNCTION      0.00     0.00     0  00:00           0           0       0.000 gal
  14-13400             JUNCTION      0.00     0.00     0  00:00           0           0       0.000 gal
  14-13630             JUNCTION      0.00     0.00     0  00:00           0           0       0.000 gal
  14-13640             JUNCTION      0.00     0.00     0  00:00           0           0       0.000 gal
  14-13700             JUNCTION      0.00     0.00     0  00:00           0           0       0.000 gal
  14-13830             JUNCTION      0.00     0.00     0  00:00           0           0       0.000 gal
  14-13960             JUNCTION      0.00     0.00     0  00:00           0           0       0.000 gal
  14-14000             JUNCTION      0.00     0.00     0  00:00           0           0       0.000 gal
  14-14070             JUNCTION      0.00     0.00     0  00:00           0           0       0.000 gal
  14-14400             JUNCTION      0.00     0.00     0  00:00           0           0       0.000 gal
  14-14470             JUNCTION      0.00     0.00     0  00:00           0           0       0.000 gal
  14-14480             JUNCTION      0.00     0.00     0  00:00           0           0       0.000 gal
  14-14550             JUNCTION      0.00     0.00     0  00:00           0           0       0.000 gal
  14-14660             JUNCTION      0.00     0.00     0  00:00           0           0       0.000 gal
  14-14770             JUNCTION      0.00     0.00     0  00:00           0           0       0.000 gal
  14-15040             JUNCTION      0.00     0.00     0  00:00           0           0       0.000 gal
  14-15140             JUNCTION      0.00     0.00     0  00:00           0           0       0.000 gal
  14-15260             JUNCTION      0.00     0.00     0  00:00           0           0       0.000 gal
  14-15360             JUNCTION      0.00     0.00     0  00:00           0           0       0.000 gal
  14-15390             JUNCTION      0.00     0.00     0  00:00           0           0       0.000 gal
  14-15460             JUNCTION      0.00     0.00     0  00:00           0           0       0.000 gal
  14-15470             JUNCTION      0.00     0.00     0  00:00           0           0       0.000 gal
  14-16360             JUNCTION      0.00     0.00     0  00:00           0           0       0.000 gal
  14-16410             JUNCTION      0.00     0.00     0  00:00           0           0       0.000 gal
  14-16900             JUNCTION      0.00     0.00     0  00:00           0           0       0.000 gal
  14-17370             JUNCTION      0.00     0.00     0  00:00           0           0       0.000 gal
  14-17580             JUNCTION      0.00     0.00     0  00:00           0           0       0.000 gal
  14-17720             JUNCTION      0.00     0.00     0  00:00           0           0       0.000 gal
  14-17940             JUNCTION      0.00     0.00     0  00:00           0           0       0.000 gal
  14-18070             JUNCTION      0.00     0.00     0  00:00           0           0       0.000 gal
  14-18260             JUNCTION      0.00     0.00     0  00:00           0           0       0.000 gal
  14-18270             JUNCTION      0.00     0.00     0  00:00           0           0       0.000 gal
  14-18380             JUNCTION      0.00     0.00     0  00:00           0           0       0.000 gal
  14-18400             JUNCTION      0.00     0.00     0  00:00           0           0       0.000 gal
  14-18580             JUNCTION      0.00     0.00     0  00:00           0           0       0.000 gal
  14-18750             JUNCTION      0.00     0.00     0  00:00           0           0       0.000 gal
  14-18780             JUNCTION      0.00     0.00     0  00:00           0           0       0.000 gal
  14-18820             JUNCTION      0.00     0.00     0  00:00           0           0       0.000 gal
  14-18960             JUNCTION      0.00     0.00     0  00:00           0           0       0.000 gal
  14-19090             JUNCTION      0.00     0.00     0  00:00           0           0       0.000 gal
  14-19200             JUNCTION      0.00     0.00     0  00:00           0           0       0.000 gal
  14-19260             JUNCTION      0.00     0.00     0  00:00           0           0       0.000 gal
  14-19280             JUNCTION      0.00     0.00     0  00:00           0           0       0.000 gal
  14-19390             JUNCTION      0.00     0.00     0  00:00           0           0       0.000 gal
  14-19530             JUNCTION      0.00     0.00     0  00:00           0           0       0.000 gal
  14-19560             JUNCTION      0.00     0.00     0  00:00           0           0       0.000 gal
  WTP1                 OUTFALL       0.00     0.00     0  00:00           0           0       0.000 gal
  
  
  **********************
  Node Surcharge Summary
  **********************
  
  No nodes were surcharged.
  
  
  *********************
  Node Flooding Summary
  *********************
  
  No nodes were flooded.
  
  
  ***********************
  Outfall Loading Summary
  ***********************
  
  -----------------------------------------------------------
                         Flow       Avg       Max       Total
                         Freq      Flow      Flow      Volume
  Outfall Node           Pcnt       CFS       CFS    10^6 gal
  -----------------------------------------------------------
  WTP1                -nan(ind)      0.00      0.00       0.000
  -----------------------------------------------------------
  System              -nan(ind)      0.00      0.00       0.000
  
  
  ********************
  Link Flow Summary
  ********************
  
  -----------------------------------------------------------------------------
                                 Maximum  Time of Max   Maximum    Max/    Max/
                                  |Flow|   Occurrence   |Veloc|    Full    Full
  Link                 Type          CFS  days hr:min    ft/sec    Flow   Depth
  -----------------------------------------------------------------------------
  1018                 CONDUIT      0.00     0  00:00      0.00    0.00    0.00
  1022                 CONDUIT      0.00     0  00:00      0.00    0.00    0.00
  1062                 CONDUIT      0.00     0  00:00      0.00    0.00    0.00
  1104                 CONDUIT      0.00     0  00:00      0.00    0.00    0.00
  1207                 CONDUIT      0.00     0  00:00      0.00    0.00    0.00
  1270                 CONDUIT      0.00     0  00:00      0.00    0.00    0.00
  1291                 CONDUIT      0.00     0  00:00      0.00    0.00    0.00
  1305                 CONDUIT      0.00     0  00:00      0.00    0.00    0.00
  1406                 CONDUIT      0.00     0  00:00      0.00    0.00    0.00
  1498                 CONDUIT      0.00     0  00:00      0.00    0.00    0.00
  1582                 CONDUIT      0.00     0  00:00      0.00    0.00    0.00
  1658                 CONDUIT      0.00     0  00:00      0.00    0.00    0.00
  1701                 CONDUIT      0.00     0  00:00      0.00    0.00    0.00
  1748                 CONDUIT      0.00     0  00:00      0.00    0.00    0.00
  1764                 CONDUIT      0.00     0  00:00      0.00    0.00    0.00
  1862                 CONDUIT      0.00     0  00:00      0.00    0.00    0.00
  1941                 CONDUIT      0.00     0  00:00      0.00    0.00    0.00
  2174                 CONDUIT      0.00     0  00:00      0.00    0.00    0.00
  2246                 CONDUIT      0.00     0  00:00      0.00    0.00    0.00
  2326                 CONDUIT      0.00     0  00:00      0.00    0.00    0.00
  2445                 CONDUIT      0.00     0  00:00      0.00    0.00    0.00
  2500                 CONDUIT      0.00     0  00:00      0.00    0.00    0.00
  2574                 CONDUIT      0.00     0  00:00      0.00    0.00    0.00
  2662                 CONDUIT      0.00     0  00:00      0.00    0.00    0.00
  2694                 CONDUIT      0.00     0  00:00      0.00    0.00    0.00
  2759                 CONDUIT      0.00     0  00:00      0.00    0.00    0.00
  2895                 CONDUIT      0.00     0  00:00      0.00    0.00    0.00
  2987                 CONDUIT      0.00     0  00:00      0.00    0.00    0.00
  3048                 CONDUIT      0.00     0  00:00      0.00    0.00    0.00
  3108                 CONDUIT      0.00     0  00:00      0.00    0.00    0.00
  3178                 CONDUIT      0.00     0  00:00      0.00    0.00    0.00
  3212                 CONDUIT      0.00     0  00:00      0.00    0.00    0.00
  3285                 CONDUIT      0.00     0  00:00      0.00    0.00    0.00
  3320                 CONDUIT      0.00     0  00:00      0.00    0.00    0.00
  3355                 CONDUIT      0.00     0  00:00      0.00    0.00    0.00
  3420                 CONDUIT      0.00     0  00:00      0.00    0.00    0.00
  3452                 CONDUIT      0.00     0  00:00      0.00    0.00    0.00
  3468                 CONDUIT      0.00     0  00:00      0.00    0.00    0.00
  3478                 CONDUIT      0.00     0  00:00      0.00    0.00    0.00
  3595                 CONDUIT      0.00     0  00:00      0.00    0.00    0.00
  3673                 CONDUIT      0.00     0  00:00      0.00    0.00    0.00
  3727                 CONDUIT      0.00     0  00:00      0.00    0.00    0.00
  3737                 CONDUIT      0.00     0  00:00      0.00    0.00    0.00
  3742                 CONDUIT      0.00     0  00:00      0.00    0.00    0.00
  3755                 CONDUIT      0.00     0  00:00      0.00    0.00    0.00
  3756                 CONDUIT      0.00     0  00:00      0.00    0.00    0.00
  3776                 CONDUIT      0.00     0  00:00      0.00    0.00    0.00
  3827                 CONDUIT      0.00     0  00:00      0.00    0.00    0.00
  3891                 CONDUIT      0.00     0  00:00      0.00    0.00    0.00
  3950                 CONDUIT      0.00     0  00:00      0.00    0.00    0.00
  3996                 CONDUIT      0.00     0  00:00      0.00    0.00    0.00
  4045                 CONDUIT      0.00     0  00:00      0.00    0.00    0.00
  4090                 CONDUIT      0.00     0  00:00      0.00    0.00    0.00
  4131                 CONDUIT      0.00     0  00:00      0.00    0.00    0.00
  4135                 CONDUIT      0.00     0  00:00      0.00    0.00    0.00
  4179                 CONDUIT      0.00     0  00:00      0.00    0.00    0.00
  4182                 CONDUIT      0.00     0  00:00      0.00    0.00    0.00
  4183                 CONDUIT      0.00     0  00:00      0.00    0.00    0.00
  4202                 CONDUIT      0.00     0  00:00      0.00    0.00    0.00
  4248/new             CONDUIT      0.00     0  00:00      0.00    0.00    0.00
  4304                 CONDUIT      0.00     0  00:00      0.00    0.00    0.00
  4320                 CONDUIT      0.00     0  00:00      0.00    0.00    0.00
  4328                 CONDUIT      0.00     0  00:00      0.00    0.00    0.00
  4335                 CONDUIT      0.00     0  00:00      0.00    0.00    0.00
  4336                 CONDUIT      0.00     0  00:00      0.00    0.00    0.00
  4339                 CONDUIT      0.00     0  00:00      0.00    0.00    0.00
  4345                 CONDUIT      0.00     0  00:00      0.00    0.00    0.00
  4352                 CONDUIT      0.00     0  00:00      0.00    0.00    0.00
  4372                 CONDUIT      0.00     0  00:00      0.00    0.00    0.00
  4927                 CONDUIT      0.00     0  00:00      0.00    0.00    0.00
  4931                 CONDUIT      0.00     0  00:00      0.00    0.00    0.00
  4984                 CONDUIT      0.00     0  00:00      0.00    0.00    0.00
  5105                 CONDUIT      0.00     0  00:00      0.00    0.00    0.00
  5158                 CONDUIT      0.00     0  00:00      0.00    0.00    0.00
  5237                 CONDUIT      0.00     0  00:00      0.00    0.00    0.00
  5297                 CONDUIT      0.00     0  00:00      0.00    0.00    0.00
  5328                 CONDUIT      0.00     0  00:00      0.00    0.00    0.00
  5330                 CONDUIT      0.00     0  00:00      0.00    0.00    0.00
  5776                 CONDUIT      0.00     0  00:00      0.00    0.00    0.00
  5777                 CONDUIT      0.00     0  00:00      0.00    0.00    0.00
  5780                 CONDUIT      0.00     0  00:00      0.00    0.00    0.00
  5785                 CONDUIT      0.00     0  00:00      0.00    0.00    0.00
  5967                 CONDUIT      0.00     0  00:00      0.00    0.00    0.00
  5971                 CONDUIT      0.00     0  00:00      0.00    0.00    0.00
  5973                 CONDUIT      0.00     0  00:00      0.00    0.00    0.00
  5980                 CONDUIT      0.00     0  00:00      0.00    0.00    0.00
  6139                 CONDUIT      0.00     0  00:00      0.00    0.00    0.00
  6168                 CONDUIT      0.00     0  00:00      0.00    0.00    0.00
  6169                 CONDUIT      0.00     0  00:00      0.00    0.00    0.00
  7128                 CONDUIT      0.00     0  00:00      0.00    0.00    0.00
  7135                 CONDUIT      0.00     0  00:00      0.00    0.00    0.00
  7475                 CONDUIT      0.00     0  00:00      0.00    0.00    0.00
  920                  CONDUIT      0.00     0  00:00      0.00    0.00    0.00
  934                  CONDUIT      0.00     0  00:00      0.00    0.00    0.00
  979                  CONDUIT      0.00     0  00:00      0.00    0.00    0.00
  
  
  ***************************
  Flow Classification Summary
  ***************************
  
  -------------------------------------------------------------------------------------
                      Adjusted    ---------- Fraction of Time in Flow Class ---------- 
                       /Actual         Up    Down  Sub   Sup   Up    Down  Norm  Inlet 
  Conduit               Length    Dry  Dry   Dry   Crit  Crit  Crit  Crit  Ltd   Ctrl  
  -------------------------------------------------------------------------------------
  1018                    1.00   -nan(ind)  -nan(ind)  -nan(ind)  -nan(ind)  -nan(ind)  -nan(ind)  -nan(ind)  -nan(ind)  -nan(ind)
  1022                    1.00   -nan(ind)  -nan(ind)  -nan(ind)  -nan(ind)  -nan(ind)  -nan(ind)  -nan(ind)  -nan(ind)  -nan(ind)
  1062                    1.00   -nan(ind)  -nan(ind)  -nan(ind)  -nan(ind)  -nan(ind)  -nan(ind)  -nan(ind)  -nan(ind)  -nan(ind)
  1104                    1.00   -nan(ind)  -nan(ind)  -nan(ind)  -nan(ind)  -nan(ind)  -nan(ind)  -nan(ind)  -nan(ind)  -nan(ind)
  1207                    1.00   -nan(ind)  -nan(ind)  -nan(ind)  -nan(ind)  -nan(ind)  -nan(ind)  -nan(ind)  -nan(ind)  -nan(ind)
  1270                    1.00   -nan(ind)  -nan(ind)  -nan(ind)  -nan(ind)  -nan(ind)  -nan(ind)  -nan(ind)  -nan(ind)  -nan(ind)
  1291                    1.00   -nan(ind)  -nan(ind)  -nan(ind)  -nan(ind)  -nan(ind)  -nan(ind)  -nan(ind)  -nan(ind)  -nan(ind)
  1305                    1.00   -nan(ind)  -nan(ind)  -nan(ind)  -nan(ind)  -nan(ind)  -nan(ind)  -nan(ind)  -nan(ind)  -nan(ind)
  1406                    1.00   -nan(ind)  -nan(ind)  -nan(ind)  -nan(ind)  -nan(ind)  -nan(ind)  -nan(ind)  -nan(ind)  -nan(ind)
  1498                    1.00   -nan(ind)  -nan(ind)  -nan(ind)  -nan(ind)  -nan(ind)  -nan(ind)  -nan(ind)  -nan(ind)  -nan(ind)
  1582                    1.00   -nan(ind)  -nan(ind)  -nan(ind)  -nan(ind)  -nan(ind)  -nan(ind)  -nan(ind)  -nan(ind)  -nan(ind)
  1658                    1.00   -nan(ind)  -nan(ind)  -nan(ind)  -nan(ind)  -nan(ind)  -nan(ind)  -nan(ind)  -nan(ind)  -nan(ind)
  1701                    1.00   -nan(ind)  -nan(ind)  -nan(ind)  -nan(ind)  -nan(ind)  -nan(ind)  -nan(ind)  -nan(ind)  -nan(ind)
  1748                    1.00   -nan(ind)  -nan(ind)  -nan(ind)  -nan(ind)  -nan(ind)  -nan(ind)  -nan(ind)  -nan(ind)  -nan(ind)
  1764                    1.00   -nan(ind)  -nan(ind)  -nan(ind)  -nan(ind)  -nan(ind)  -nan(ind)  -nan(ind)  -nan(ind)  -nan(ind)
  1862                    1.00   -nan(ind)  -nan(ind)  -nan(ind)  -nan(ind)  -nan(ind)  -nan(ind)  -nan(ind)  -nan(ind)  -nan(ind)
  1941                    1.00   -nan(ind)  -nan(ind)  -nan(ind)  -nan(ind)  -nan(ind)  -nan(ind)  -nan(ind)  -nan(ind)  -nan(ind)
  2174                    1.00   -nan(ind)  -nan(ind)  -nan(ind)  -nan(ind)  -nan(ind)  -nan(ind)  -nan(ind)  -nan(ind)  -nan(ind)
  2246                    1.00   -nan(ind)  -nan(ind)  -nan(ind)  -nan(ind)  -nan(ind)  -nan(ind)  -nan(ind)  -nan(ind)  -nan(ind)
  2326                    1.00   -nan(ind)  -nan(ind)  -nan(ind)  -nan(ind)  -nan(ind)  -nan(ind)  -nan(ind)  -nan(ind)  -nan(ind)
  2445                    1.00   -nan(ind)  -nan(ind)  -nan(ind)  -nan(ind)  -nan(ind)  -nan(ind)  -nan(ind)  -nan(ind)  -nan(ind)
  2500                    1.00   -nan(ind)  -nan(ind)  -nan(ind)  -nan(ind)  -nan(ind)  -nan(ind)  -nan(ind)  -nan(ind)  -nan(ind)
  2574                    1.00   -nan(ind)  -nan(ind)  -nan(ind)  -nan(ind)  -nan(ind)  -nan(ind)  -nan(ind)  -nan(ind)  -nan(ind)
  2662                    1.00   -nan(ind)  -nan(ind)  -nan(ind)  -nan(ind)  -nan(ind)  -nan(ind)  -nan(ind)  -nan(ind)  -nan(ind)
  2694                    1.00   -nan(ind)  -nan(ind)  -nan(ind)  -nan(ind)  -nan(ind)  -nan(ind)  -nan(ind)  -nan(ind)  -nan(ind)
  2759                    1.00   -nan(ind)  -nan(ind)  -nan(ind)  -nan(ind)  -nan(ind)  -nan(ind)  -nan(ind)  -nan(ind)  -nan(ind)
  2895                    1.00   -nan(ind)  -nan(ind)  -nan(ind)  -nan(ind)  -nan(ind)  -nan(ind)  -nan(ind)  -nan(ind)  -nan(ind)
  2987                    1.00   -nan(ind)  -nan(ind)  -nan(ind)  -nan(ind)  -nan(ind)  -nan(ind)  -nan(ind)  -nan(ind)  -nan(ind)
  3048                    1.00   -nan(ind)  -nan(ind)  -nan(ind)  -nan(ind)  -nan(ind)  -nan(ind)  -nan(ind)  -nan(ind)  -nan(ind)
  3108                    1.00   -nan(ind)  -nan(ind)  -nan(ind)  -nan(ind)  -nan(ind)  -nan(ind)  -nan(ind)  -nan(ind)  -nan(ind)
  3178                    1.00   -nan(ind)  -nan(ind)  -nan(ind)  -nan(ind)  -nan(ind)  -nan(ind)  -nan(ind)  -nan(ind)  -nan(ind)
  3212                    1.00   -nan(ind)  -nan(ind)  -nan(ind)  -nan(ind)  -nan(ind)  -nan(ind)  -nan(ind)  -nan(ind)  -nan(ind)
  3285                    1.00   -nan(ind)  -nan(ind)  -nan(ind)  -nan(ind)  -nan(ind)  -nan(ind)  -nan(ind)  -nan(ind)  -nan(ind)
  3320                    1.00   -nan(ind)  -nan(ind)  -nan(ind)  -nan(ind)  -nan(ind)  -nan(ind)  -nan(ind)  -nan(ind)  -nan(ind)
  3355                    1.00   -nan(ind)  -nan(ind)  -nan(ind)  -nan(ind)  -nan(ind)  -nan(ind)  -nan(ind)  -nan(ind)  -nan(ind)
  3420                    1.00   -nan(ind)  -nan(ind)  -nan(ind)  -nan(ind)  -nan(ind)  -nan(ind)  -nan(ind)  -nan(ind)  -nan(ind)
  3452                    1.00   -nan(ind)  -nan(ind)  -nan(ind)  -nan(ind)  -nan(ind)  -nan(ind)  -nan(ind)  -nan(ind)  -nan(ind)
  3468                    1.00   -nan(ind)  -nan(ind)  -nan(ind)  -nan(ind)  -nan(ind)  -nan(ind)  -nan(ind)  -nan(ind)  -nan(ind)
  3478                    1.00   -nan(ind)  -nan(ind)  -nan(ind)  -nan(ind)  -nan(ind)  -nan(ind)  -nan(ind)  -nan(ind)  -nan(ind)
  3595                    1.00   -nan(ind)  -nan(ind)  -nan(ind)  -nan(ind)  -nan(ind)  -nan(ind)  -nan(ind)  -nan(ind)  -nan(ind)
  3673                    1.00   -nan(ind)  -nan(ind)  -nan(ind)  -nan(ind)  -nan(ind)  -nan(ind)  -nan(ind)  -nan(ind)  -nan(ind)
  3727                    1.00   -nan(ind)  -nan(ind)  -nan(ind)  -nan(ind)  -nan(ind)  -nan(ind)  -nan(ind)  -nan(ind)  -nan(ind)
  3737                    1.00   -nan(ind)  -nan(ind)  -nan(ind)  -nan(ind)  -nan(ind)  -nan(ind)  -nan(ind)  -nan(ind)  -nan(ind)
  3742                    1.00   -nan(ind)  -nan(ind)  -nan(ind)  -nan(ind)  -nan(ind)  -nan(ind)  -nan(ind)  -nan(ind)  -nan(ind)
  3755                    1.00   -nan(ind)  -nan(ind)  -nan(ind)  -nan(ind)  -nan(ind)  -nan(ind)  -nan(ind)  -nan(ind)  -nan(ind)
  3756                    1.00   -nan(ind)  -nan(ind)  -nan(ind)  -nan(ind)  -nan(ind)  -nan(ind)  -nan(ind)  -nan(ind)  -nan(ind)
  3776                    1.00   -nan(ind)  -nan(ind)  -nan(ind)  -nan(ind)  -nan(ind)  -nan(ind)  -nan(ind)  -nan(ind)  -nan(ind)
  3827                    1.00   -nan(ind)  -nan(ind)  -nan(ind)  -nan(ind)  -nan(ind)  -nan(ind)  -nan(ind)  -nan(ind)  -nan(ind)
  3891                    1.00   -nan(ind)  -nan(ind)  -nan(ind)  -nan(ind)  -nan(ind)  -nan(ind)  -nan(ind)  -nan(ind)  -nan(ind)
  3950                    1.00   -nan(ind)  -nan(ind)  -nan(ind)  -nan(ind)  -nan(ind)  -nan(ind)  -nan(ind)  -nan(ind)  -nan(ind)
  3996                    1.00   -nan(ind)  -nan(ind)  -nan(ind)  -nan(ind)  -nan(ind)  -nan(ind)  -nan(ind)  -nan(ind)  -nan(ind)
  4045                    1.00   -nan(ind)  -nan(ind)  -nan(ind)  -nan(ind)  -nan(ind)  -nan(ind)  -nan(ind)  -nan(ind)  -nan(ind)
  4090                    1.00   -nan(ind)  -nan(ind)  -nan(ind)  -nan(ind)  -nan(ind)  -nan(ind)  -nan(ind)  -nan(ind)  -nan(ind)
  4131                    1.00   -nan(ind)  -nan(ind)  -nan(ind)  -nan(ind)  -nan(ind)  -nan(ind)  -nan(ind)  -nan(ind)  -nan(ind)
  4135                    1.84   -nan(ind)  -nan(ind)  -nan(ind)  -nan(ind)  -nan(ind)  -nan(ind)  -nan(ind)  -nan(ind)  -nan(ind)
  4179                    1.00   -nan(ind)  -nan(ind)  -nan(ind)  -nan(ind)  -nan(ind)  -nan(ind)  -nan(ind)  -nan(ind)  -nan(ind)
  4182                    1.00   -nan(ind)  -nan(ind)  -nan(ind)  -nan(ind)  -nan(ind)  -nan(ind)  -nan(ind)  -nan(ind)  -nan(ind)
  4183                    1.00   -nan(ind)  -nan(ind)  -nan(ind)  -nan(ind)  -nan(ind)  -nan(ind)  -nan(ind)  -nan(ind)  -nan(ind)
  4202                    1.00   -nan(ind)  -nan(ind)  -nan(ind)  -nan(ind)  -nan(ind)  -nan(ind)  -nan(ind)  -nan(ind)  -nan(ind)
  4248/new                1.00   -nan(ind)  -nan(ind)  -nan(ind)  -nan(ind)  -nan(ind)  -nan(ind)  -nan(ind)  -nan(ind)  -nan(ind)
  4304                    1.00   -nan(ind)  -nan(ind)  -nan(ind)  -nan(ind)  -nan(ind)  -nan(ind)  -nan(ind)  -nan(ind)  -nan(ind)
  4320                    1.00   -nan(ind)  -nan(ind)  -nan(ind)  -nan(ind)  -nan(ind)  -nan(ind)  -nan(ind)  -nan(ind)  -nan(ind)
  4328                    1.00   -nan(ind)  -nan(ind)  -nan(ind)  -nan(ind)  -nan(ind)  -nan(ind)  -nan(ind)  -nan(ind)  -nan(ind)
  4335                    1.00   -nan(ind)  -nan(ind)  -nan(ind)  -nan(ind)  -nan(ind)  -nan(ind)  -nan(ind)  -nan(ind)  -nan(ind)
  4336                    1.00   -nan(ind)  -nan(ind)  -nan(ind)  -nan(ind)  -nan(ind)  -nan(ind)  -nan(ind)  -nan(ind)  -nan(ind)
  4339                    1.00   -nan(ind)  -nan(ind)  -nan(ind)  -nan(ind)  -nan(ind)  -nan(ind)  -nan(ind)  -nan(ind)  -nan(ind)
  4345                    1.00   -nan(ind)  -nan(ind)  -nan(ind)  -nan(ind)  -nan(ind)  -nan(ind)  -nan(ind)  -nan(ind)  -nan(ind)
  4352                    1.00   -nan(ind)  -nan(ind)  -nan(ind)  -nan(ind)  -nan(ind)  -nan(ind)  -nan(ind)  -nan(ind)  -nan(ind)
  4372                    1.00   -nan(ind)  -nan(ind)  -nan(ind)  -nan(ind)  -nan(ind)  -nan(ind)  -nan(ind)  -nan(ind)  -nan(ind)
  4927                    1.00   -nan(ind)  -nan(ind)  -nan(ind)  -nan(ind)  -nan(ind)  -nan(ind)  -nan(ind)  -nan(ind)  -nan(ind)
  4931                    1.00   -nan(ind)  -nan(ind)  -nan(ind)  -nan(ind)  -nan(ind)  -nan(ind)  -nan(ind)  -nan(ind)  -nan(ind)
  4984                    1.00   -nan(ind)  -nan(ind)  -nan(ind)  -nan(ind)  -nan(ind)  -nan(ind)  -nan(ind)  -nan(ind)  -nan(ind)
  5105                    1.00   -nan(ind)  -nan(ind)  -nan(ind)  -nan(ind)  -nan(ind)  -nan(ind)  -nan(ind)  -nan(ind)  -nan(ind)
  5158                    1.00   -nan(ind)  -nan(ind)  -nan(ind)  -nan(ind)  -nan(ind)  -nan(ind)  -nan(ind)  -nan(ind)  -nan(ind)
  5237                    1.00   -nan(ind)  -nan(ind)  -nan(ind)  -nan(ind)  -nan(ind)  -nan(ind)  -nan(ind)  -nan(ind)  -nan(ind)
  5297                    1.00   -nan(ind)  -nan(ind)  -nan(ind)  -nan(ind)  -nan(ind)  -nan(ind)  -nan(ind)  -nan(ind)  -nan(ind)
  5328                    1.00   -nan(ind)  -nan(ind)  -nan(ind)  -nan(ind)  -nan(ind)  -nan(ind)  -nan(ind)  -nan(ind)  -nan(ind)
  5330                    1.00   -nan(ind)  -nan(ind)  -nan(ind)  -nan(ind)  -nan(ind)  -nan(ind)  -nan(ind)  -nan(ind)  -nan(ind)
  5776                    1.00   -nan(ind)  -nan(ind)  -nan(ind)  -nan(ind)  -nan(ind)  -nan(ind)  -nan(ind)  -nan(ind)  -nan(ind)
  5777                    1.00   -nan(ind)  -nan(ind)  -nan(ind)  -nan(ind)  -nan(ind)  -nan(ind)  -nan(ind)  -nan(ind)  -nan(ind)
  5780                    1.00   -nan(ind)  -nan(ind)  -nan(ind)  -nan(ind)  -nan(ind)  -nan(ind)  -nan(ind)  -nan(ind)  -nan(ind)
  5785                    1.00   -nan(ind)  -nan(ind)  -nan(ind)  -nan(ind)  -nan(ind)  -nan(ind)  -nan(ind)  -nan(ind)  -nan(ind)
  5967                    1.00   -nan(ind)  -nan(ind)  -nan(ind)  -nan(ind)  -nan(ind)  -nan(ind)  -nan(ind)  -nan(ind)  -nan(ind)
  5971                    1.00   -nan(ind)  -nan(ind)  -nan(ind)  -nan(ind)  -nan(ind)  -nan(ind)  -nan(ind)  -nan(ind)  -nan(ind)
  5973                    1.00   -nan(ind)  -nan(ind)  -nan(ind)  -nan(ind)  -nan(ind)  -nan(ind)  -nan(ind)  -nan(ind)  -nan(ind)
  5980                    1.06   -nan(ind)  -nan(ind)  -nan(ind)  -nan(ind)  -nan(ind)  -nan(ind)  -nan(ind)  -nan(ind)  -nan(ind)
  6139                    1.00   -nan(ind)  -nan(ind)  -nan(ind)  -nan(ind)  -nan(ind)  -nan(ind)  -nan(ind)  -nan(ind)  -nan(ind)
  6168                    1.00   -nan(ind)  -nan(ind)  -nan(ind)  -nan(ind)  -nan(ind)  -nan(ind)  -nan(ind)  -nan(ind)  -nan(ind)
  6169                    1.00   -nan(ind)  -nan(ind)  -nan(ind)  -nan(ind)  -nan(ind)  -nan(ind)  -nan(ind)  -nan(ind)  -nan(ind)
  7128                    3.59   -nan(ind)  -nan(ind)  -nan(ind)  -nan(ind)  -nan(ind)  -nan(ind)  -nan(ind)  -nan(ind)  -nan(ind)
  7135                    1.00   -nan(ind)  -nan(ind)  -nan(ind)  -nan(ind)  -nan(ind)  -nan(ind)  -nan(ind)  -nan(ind)  -nan(ind)
  7475                    1.00   -nan(ind)  -nan(ind)  -nan(ind)  -nan(ind)  -nan(ind)  -nan(ind)  -nan(ind)  -nan(ind)  -nan(ind)
  920                     1.18   -nan(ind)  -nan(ind)  -nan(ind)  -nan(ind)  -nan(ind)  -nan(ind)  -nan(ind)  -nan(ind)  -nan(ind)
  934                     1.00   -nan(ind)  -nan(ind)  -nan(ind)  -nan(ind)  -nan(ind)  -nan(ind)  -nan(ind)  -nan(ind)  -nan(ind)
  979                     1.00   -nan(ind)  -nan(ind)  -nan(ind)  -nan(ind)  -nan(ind)  -nan(ind)  -nan(ind)  -nan(ind)  -nan(ind)
  
  
  *************************
  Conduit Surcharge Summary
  *************************
  
  No conduits were surcharged.
  

  Analysis begun on:  Sat Nov 30 08:10:25 2019
  Analysis ended on:  Sat Nov 30 08:10:25 2019
  Total elapsed time: < 1 sec