
  EPA STORM WATER MANAGEMENT MODEL - VERSION 5.1 (Build 5.1.013)
  --------------------------------------------------------------

  WARNING 03: negative offset ignored for Link GOLAB02
  WARNING 03: negative offset ignored for Link 30
  WARNING 08: elevation drop exceeds length for Conduit 37
  
  *********************************************************
  NOTE: The summary statistics displayed in this report are
  based on results found at every computational time step,  
  not just on results from each reporting time step.
  *********************************************************
  
  ****************
  Analysis Options
  ****************
  Flow Units ............... CMS
  Process Models:
    Rainfall/Runoff ........ YES
    RDII ................... NO
    Snowmelt ............... NO
    Groundwater ............ NO
    Flow Routing ........... YES
    Ponding Allowed ........ NO
    Water Quality .......... YES
  Infiltration Method ...... HORTON
  Flow Routing Method ...... KINWAVE
  Starting Date ............ 10/20/2014 00:00:00
  Ending Date .............. 10/20/2014 06:00:00
  Antecedent Dry Days ...... 0.0
  Report Time Step ......... 00:15:00
  Wet Time Step ............ 00:05:00
  Dry Time Step ............ 01:00:00
  Routing Time Step ........ 30.00 sec
  
  
  **************************        Volume         Depth
  Runoff Quantity Continuity     hectare-m            mm
  **************************     ---------       -------
  Total Precipitation ......        27.154         8.000
  Evaporation Loss .........         0.000         0.000
  Infiltration Loss ........         8.659         2.551
  Surface Runoff ...........         7.249         2.136
  Final Storage ............        11.279         3.323
  Continuity Error (%) .....        -0.120
  
  
  **************************           TSS            TN            TP   Temperature
  Runoff Quality Continuity             kg            kg            kg            kg
  **************************    ----------    ----------    ----------    ----------
  Initial Buildup ..........    314470.070      4769.527       265.156         0.000
  Surface Buildup ..........         0.570         0.579         0.000         0.000
  Wet Deposition ...........         0.000         0.000         0.000      5430.800
  Sweeping Removal .........         0.000         0.000         0.000         0.000
  Infiltration Loss ........         0.000         0.000         0.000      1731.716
  BMP Removal ..............         0.000         0.000         0.000         0.000
  Surface Runoff ...........    275260.045      4305.580        63.840      1449.844
  Remaining Buildup ........     39210.595       464.526       201.316      2255.735
  Continuity Error (%) .....         0.000         0.000         0.000        -0.120
  
  
  **************************        Volume        Volume
  Flow Routing Continuity        hectare-m      10^6 ltr
  **************************     ---------     ---------
  Dry Weather Inflow .......         0.000         0.000
  Wet Weather Inflow .......         7.242        72.422
  Groundwater Inflow .......         0.000         0.000
  RDII Inflow ..............         0.000         0.000
  External Inflow ..........         0.000         0.000
  External Outflow .........         8.402        84.021
  Flooding Loss ............         0.004         0.045
  Evaporation Loss .........         0.000         0.000
  Exfiltration Loss ........         0.000         0.000
  Initial Stored Volume ....         1.708        17.082
  Final Stored Volume ......         0.543         5.435
  Continuity Error (%) .....         0.004
  
  
  **************************           TSS            TN            TP   Temperature
  Quality Routing Continuity            kg            kg            kg            kg
  **************************    ----------    ----------    ----------    ----------
  Dry Weather Inflow .......         0.000         0.000         0.000         0.000
  Wet Weather Inflow .......    275132.813      4304.649        63.804      1445.685
  Groundwater Inflow .......         0.000         0.000         0.000         0.000
  RDII Inflow ..............         0.000         0.000         0.000         0.000
  External Inflow ..........         0.000         0.000         0.000         0.000
  External Outflow .........    269823.766      4326.235        59.609      1276.138
  Flooding Loss ............         0.000         0.000         0.000         0.000
  Exfiltration Loss ........         0.000         0.000         0.000         0.000
  Mass Reacted .............        23.417         0.163         0.005         0.000
  Initial Stored Mass ......         0.000         0.000         0.000         0.000
  Final Stored Mass ........      7748.258        72.671         2.713       106.642
  Continuity Error (%) .....        -0.895        -2.193         2.314         4.351
  
  
  ********************************
  Highest Flow Instability Indexes
  ********************************
  Link 37 (3)
  Link zargandeh15 (3)
  Link DARBAND02 (2)
  Link zargandeh14 (2)
  Link zargandeh13 (2)
  
  
  *************************
  Routing Time Step Summary
  *************************
  Minimum Time Step           :    30.00 sec
  Average Time Step           :    30.00 sec
  Maximum Time Step           :    30.00 sec
  Percent in Steady State     :     0.00
  Average Iterations per Step :     1.37
  Percent Not Converging      :     0.00
  
  
  ***************************
  Subcatchment Runoff Summary
  ***************************
  
  ------------------------------------------------------------------------------------------------------------------------------
                            Total      Total      Total      Total     Imperv       Perv      Total       Total     Peak  Runoff
                           Precip      Runon       Evap      Infil     Runoff     Runoff     Runoff      Runoff   Runoff   Coeff
  Subcatchment                 mm         mm         mm         mm         mm         mm         mm    10^6 ltr      CMS
  ------------------------------------------------------------------------------------------------------------------------------
  21                         8.00       0.00       0.00       2.87       0.32       0.03       0.35        1.99     0.15   0.044
  27                         8.00       0.00       0.00       1.79       1.83       0.12       1.95        2.54     0.28   0.244
  28                         8.00       0.00       0.00       2.15       2.88       1.74       4.62        1.03     0.32   0.577
  29                         8.00       0.00       0.00       2.51       2.16       1.80       3.96        0.70     0.17   0.495
  30                         8.00       0.00       0.00       1.79       3.61       0.95       4.57        3.28     1.12   0.571
  .1                         8.00       0.00       0.00       1.79       3.23       1.39       4.62        1.19     0.41   0.577
  32                         8.00       0.00       0.00       1.79       3.63       1.24       4.87        3.53     0.87   0.608
  33                         8.00       0.00       0.00       1.79       3.54       0.67       4.21        1.86     0.49   0.526
  34                         8.00       0.00       0.00       1.43       4.14       0.84       4.97        0.55     0.13   0.622
  36                         8.00       0.00       0.00       1.43       4.40       1.52       5.92        0.30     0.15   0.740
  37                         8.00       0.00       0.00       0.74       4.91       2.48       7.40        0.33     0.21   0.924
  38                         8.00       0.00       0.00       1.43       4.02       0.71       4.72        0.29     0.06   0.590
  39                         8.00       0.00       0.00       1.43       4.18       0.77       4.95        0.25     0.06   0.618
  40                         8.00       0.00       0.00       1.43       4.39       1.48       5.87        0.63     0.29   0.734
  41                         8.00       0.00       0.00       1.43       4.34       1.29       5.63        0.97     0.35   0.704
  43                         8.00       0.00       0.00       1.43       3.66       0.38       4.04        0.12     0.02   0.505
  44                         8.00       0.00       0.00       1.43       3.83       0.00       3.83        0.13     0.02   0.479
  45                         8.00       0.00       0.00       1.43       4.40       1.42       5.82        0.29     0.14   0.728
  46                         8.00       0.00       0.00       0.18       6.02       0.18       6.20        0.31     0.06   0.775
  48                         8.00       0.00       0.00       1.43       3.93       1.43       5.36        0.36     0.17   0.670
  49                         8.00       0.00       0.00       1.43       3.92       1.41       5.33        0.46     0.21   0.666
  50                         8.00       0.00       0.00       1.43       3.83       0.57       4.39        0.56     0.10   0.549
  51                         8.00       0.00       0.00       0.54       5.55       0.61       6.16        0.42     0.21   0.770
  52                         8.00       0.00       0.00       0.18       6.90       0.23       7.13        0.36     0.16   0.891
  53                         8.00       0.00       0.00       1.57       2.03       4.46       6.48        0.08     0.04   0.811
  54                         8.00       0.00       0.00       0.39       6.52       0.49       7.02        0.23     0.12   0.877
  55                         8.00       0.00       0.00       1.43       4.42       1.51       5.94        0.08     0.04   0.742
  56                         8.00       0.00       0.00       1.43       3.87       0.28       4.15        0.24     0.03   0.519
  57                         8.00       0.00       0.00       1.43       4.28       1.13       5.41        0.46     0.14   0.677
  58                         8.00       0.00       0.00       1.43       4.31       1.20       5.51        0.39     0.13   0.689
  59                         8.00       0.00       0.00       1.46       2.04       4.58       6.62        0.12     0.06   0.828
  60                         8.00       0.00       0.00       0.18       6.59       0.20       6.79        0.15     0.04   0.849
  61                         8.00       0.00       0.00       0.77       5.93       1.15       7.08        0.14     0.04   0.885
  62                         8.00       0.00       0.00       0.96       4.88       2.25       7.13        0.33     0.17   0.892
  63                         8.00       0.00       0.00       1.43       4.27       1.06       5.33        0.25     0.07   0.666
  64                         8.00       0.00       0.00       1.43       4.43       1.38       5.81        0.38     0.20   0.726
  65                         8.00       0.00       0.00       1.29       4.81       1.92       6.73        0.89     0.32   0.841
  66                         8.00       0.00       0.00       1.43       4.33       1.41       5.74        0.34     0.15   0.718
  67                         8.00       0.00       0.00       1.43       4.22       0.96       5.17        0.51     0.13   0.646
  68                         8.00       0.00       0.00       1.43       1.68       0.10       1.79        0.08     0.01   0.223
  69                         8.00       0.00       0.00       1.43       3.63       0.44       4.06        0.08     0.01   0.508
  70                         8.00       0.00       0.00       1.43       2.84       0.23       3.06        0.06     0.01   0.383
  71                         8.00       0.00       0.00       1.43       3.04       0.27       3.30        0.12     0.01   0.413
  72                         8.00       0.00       0.00       1.43       4.42       1.55       5.97        0.22     0.12   0.747
  73                         8.00       0.00       0.00       1.43       4.35       1.22       5.57        0.10     0.02   0.697
  74                         8.00       0.00       0.00       1.43       4.18       0.87       5.05        0.06     0.01   0.631
  75                         8.00       0.00       0.00       0.18       5.97       0.17       6.14        0.08     0.01   0.767
  76                         8.00       0.00       0.00       1.43       4.18       0.90       5.08        0.50     0.12   0.635
  77                         8.00       0.00       0.00       1.43       4.20       0.94       5.14        0.40     0.10   0.642
  78                         8.00       0.00       0.00       1.43       4.28       1.07       5.35        0.37     0.11   0.669
  79                         8.00       0.00       0.00       1.43       4.40       1.51       5.91        0.27     0.13   0.739
  80                         8.00       0.00       0.00       1.43       4.25       1.00       5.25        0.32     0.09   0.656
  81                         8.00       0.00       0.00       1.43       4.38       1.43       5.81        0.25     0.11   0.726
  82                         8.00       0.00       0.00       1.43       4.22       0.96       5.17        0.33     0.09   0.647
  83                         8.00       0.00       0.00       1.43       4.21       0.94       5.15        0.37     0.09   0.643
  84                         8.00       0.00       0.00       1.43       4.20       0.96       5.15        0.35     0.09   0.644
  85                         8.00       0.00       0.00       1.43       4.38       1.42       5.80        0.25     0.11   0.724
  86                         8.00       0.00       0.00       1.43       4.20       0.92       5.12        0.39     0.10   0.640
  87                         8.00       0.00       0.00       1.43       3.89       1.33       5.22        0.32     0.13   0.652
  88                         8.00       0.00       0.00       1.43       4.16       1.16       5.32        0.32     0.10   0.665
  89                         8.00       0.00       0.00       1.43       4.32       1.25       5.57        0.25     0.09   0.696
  90                         8.00       0.00       0.00       1.43       4.37       1.42       5.79        0.25     0.11   0.724
  91                         8.00       0.00       0.00       1.43       4.27       1.04       5.30        0.25     0.07   0.663
  92                         8.00       0.00       0.00       1.43       3.87       1.20       5.08        0.31     0.11   0.635
  93                         8.00       0.00       0.00       1.43       3.88       1.27       5.15        0.26     0.10   0.644
  94                         8.00       0.00       0.00       1.43       3.89       1.28       5.17        0.25     0.10   0.646
  95                         8.00       0.00       0.00       1.43       3.92       1.39       5.32        0.17     0.08   0.664
  96                         8.00       0.00       0.00       1.43       3.86       1.02       4.88        0.34     0.12   0.610
  98                         8.00       0.00       0.00       1.43       3.73       0.87       4.60        0.48     0.12   0.575
  2                          8.00       0.00       0.00       2.69       1.55       0.51       2.06       14.66     3.39   0.258
  3                          8.00       0.00       0.00       2.87       1.23       0.40       1.63       20.94     4.62   0.204
  4                          8.00       0.00       0.00       2.69       1.53       0.47       2.00        2.08     0.46   0.250
  
  
  ****************************
  Subcatchment Washoff Summary
  ****************************
  
  ----------------------------------------------------------------------------
                                 TSS            TN            TP   Temperature
  Subcatchment                    kg            kg            kg            kg
  ----------------------------------------------------------------------------
  21                       28613.575       214.053         1.150        39.752
  27                        2149.047        32.569         0.231        50.836
  28                        4203.750        75.668         0.624        20.696
  29                        3074.750        61.495         0.808        13.914
  30                       14346.000       229.536         4.227        65.512
  .1                        5146.000        92.628         0.765        23.760
  32                           0.000         0.000         0.000        70.564
  33                        6621.000       145.662         1.831        37.170
  34                        2928.660        41.838         0.825        10.953
  36                        1187.500        19.000         0.429         5.921
  37                         253.080        16.872         0.023         6.567
  38                        1643.880        23.484         0.444         5.836
  39                         712.500        19.000         0.373         4.946
  40                        2531.750        40.508         0.908        12.512
  41                        4089.750        65.436         1.418        19.386
  43                         289.000         1.157         0.096         2.335
  44                         700.000        14.000         0.112         2.681
  45                         237.500        19.000         0.424         5.821
  46                         250.000        15.000         0.232         6.198
  48                        1657.500        26.520         0.139         7.109
  49                        2140.000        34.240         0.178         9.117
  50                        2530.000        50.600         0.452        11.117
  51                        1299.600        25.992         0.151         8.431
  52                         750.000        15.000         0.129         7.130
  53                           0.000         0.000         0.000         1.634
  54                         668.000        13.360         0.085         4.687
  55                         210.000         4.200         0.032         1.662
  56                         157.140         2.096         0.089         4.830
  57                        1714.000        34.280         0.180         9.278
  58                        1406.000        28.120         0.150         7.746
  59                           0.000         0.000         0.000         2.397
  60                         302.400         0.864         0.644         2.934
  61                           0.000         0.000         0.000         2.846
  62                         891.100         1.783         0.692         6.690
  63                         377.600         1.888         1.180         5.033
  64                        1257.800        18.867         0.842         7.691
  65                        2515.600        37.734         1.868        17.823
  66                        1128.600        16.929         0.746         6.823
  67                        1980.000        29.700         1.208        10.240
  68                         383.747        12.802         0.210         1.526
  69                           0.000         0.000         0.000         1.592
  70                         145.600         3.640         0.337         1.116
  71                           0.000         0.000         0.000         2.471
  72                         180.500         7.220         1.151         4.314
  73                         138.400         0.173         0.074         1.928
  74                          89.680         0.112         0.000         1.192
  75                          35.625         0.119         0.001         1.535
  76                         784.000        29.400         1.179         9.961
  77                         629.600        23.610         0.955         8.088
  78                           0.000         0.000         0.000         7.425
  79                         228.500         9.140         1.443         5.404
  80                           0.000         0.000         0.000         6.336
  81                         213.000         8.520         1.326         4.948
  82                         514.400        19.290         0.784         6.651
  83                         362.000        28.960         0.880         7.452
  84                         336.500        20.190         1.910         6.936
  85                         216.500         8.660         1.345         5.019
  86                         457.800        22.890         2.155         7.816
  87                         303.500         0.608         0.248         6.337
  88                         297.000         0.595         0.247         6.318
  89                         228.000         0.456         0.196         5.080
  90                         215.000        12.900         1.335         4.981
  91                         237.500         0.475         0.197         5.038
  92                         291.650         0.584         2.335         6.234
  93                         238.450         0.477         0.193         5.170
  94                         230.375         0.461         0.187         5.014
  95                         152.475         0.305         0.127         3.412
  96                         328.225         0.657         0.255         6.749
  98                         494.950         0.991         0.004         9.589
  2                        53292.000       746.088         7.961       293.137
  3                       103872.986      1731.591        11.609       418.873
  4                        10399.000       145.586         1.512        41.623
  ----------------------------------------------------------------------------
  System                  275260.045      4305.580        63.840      1449.844
  
  
  ******************
  Node Depth Summary
  ******************
  
  ---------------------------------------------------------------------------------
                                 Average  Maximum  Maximum  Time of Max    Reported
                                   Depth    Depth      HGL   Occurrence   Max Depth
  Node                 Type       Meters   Meters   Meters  days hr:min      Meters
  ---------------------------------------------------------------------------------
  G2                   JUNCTION     0.07     0.43  1429.92     0  00:00        0.17
  G3                   JUNCTION     0.07     0.32  1418.26     0  00:06        0.24
  Z1                   JUNCTION     0.29     6.00  1414.26     0  00:00        0.53
  D2                   JUNCTION     0.33     0.67  1430.43     0  00:00        0.64
  D3                   JUNCTION     0.25     0.51  1425.17     0  01:31        0.51
  D4                   JUNCTION     0.23     4.30  1417.96     0  00:00        0.44
  S1                   JUNCTION     0.07     0.28  1424.54     0  00:03        0.13
  S2                   JUNCTION     0.08     0.28  1421.54     0  00:05        0.15
  Z2                   JUNCTION     0.28     0.54  1394.40     0  01:36        0.52
  Z3                   JUNCTION     0.20     0.36  1384.32     0  01:38        0.35
  Z4                   JUNCTION     0.23     0.41  1371.47     0  01:42        0.41
  Z5                   JUNCTION     0.23     0.42  1370.13     0  01:42        0.41
  Z6                   JUNCTION     0.23     0.42  1366.83     0  01:42        0.42
  Z7                   JUNCTION     0.21     0.38  1364.20     0  01:42        0.38
  Z8                   JUNCTION     0.21     0.38  1354.72     0  01:42        0.38
  Z9                   JUNCTION     0.24     0.53  1349.47     0  01:23        0.45
  Z10                  JUNCTION     0.22     0.40  1347.57     0  01:42        0.40
  Z11                  JUNCTION     0.23     0.41  1342.91     0  01:41        0.41
  Z12                  JUNCTION     0.24     0.43  1337.19     0  01:42        0.43
  Z13                  JUNCTION     0.24     0.44  1335.11     0  01:41        0.44
  Z14                  JUNCTION     0.24     0.44  1330.65     0  01:42        0.44
  Z15                  JUNCTION     0.32     0.59  1318.28     0  01:42        0.59
  G1                   JUNCTION     0.00     0.00  1442.88     0  00:00        0.00
  D1                   JUNCTION     0.28     0.85  1439.85     0  01:15        0.82
  1                    JUNCTION     0.07     0.42  1434.42     0  00:00        0.13
  5                    JUNCTION     0.04     0.13  1444.13     0  01:15        0.13
  6                    JUNCTION     0.08     0.39  1397.39     0  01:15        0.37
  7                    JUNCTION     0.01     0.04  1313.04     0  01:15        0.04
  8                    JUNCTION     0.01     0.05  1320.05     0  01:19        0.04
  9                    JUNCTION     0.01     0.03  1323.03     0  01:17        0.03
  10                   JUNCTION     0.06     0.18  1333.18     0  01:17        0.17
  11                   JUNCTION     0.05     0.15  1336.15     0  01:16        0.14
  12                   JUNCTION     0.04     0.11  1338.11     0  01:15        0.11
  13                   JUNCTION     0.11     0.40  1337.40     0  01:19        0.36
  14                   JUNCTION     0.08     0.31  1339.31     0  01:19        0.28
  15                   JUNCTION     0.07     0.28  1341.28     0  01:17        0.26
  16                   JUNCTION     0.05     0.23  1343.23     0  01:15        0.22
  17                   JUNCTION     0.00     0.03  1325.03     0  01:15        0.02
  18                   JUNCTION     0.07     0.20  1345.20     0  01:15        0.19
  19                   JUNCTION     0.10     0.25  1343.25     0  01:18        0.23
  20                   JUNCTION     0.11     0.30  1341.30     0  01:19        0.27
  22                   JUNCTION     0.15     0.39  1338.39     0  01:21        0.35
  23                   JUNCTION     0.07     0.20  1351.20     0  01:15        0.19
  24                   JUNCTION     0.10     0.26  1349.26     0  01:17        0.24
  25                   JUNCTION     0.12     0.32  1347.32     0  01:20        0.28
  26                   JUNCTION     0.14     0.36  1344.86     0  01:23        0.33
  31                   JUNCTION     0.09     0.24  1358.24     0  01:15        0.23
  35                   JUNCTION     0.15     0.48  1355.48     0  01:15        0.46
  42                   JUNCTION     0.16     0.52  1353.52     0  01:18        0.43
  47                   JUNCTION     0.17     0.53  1351.53     0  01:20        0.46
  97                   JUNCTION     0.06     0.19  1382.19     0  01:15        0.19
  99                   JUNCTION     0.09     0.27  1378.27     0  01:18        0.25
  100                  JUNCTION     0.09     0.27  1376.27     0  01:20        0.22
  101                  JUNCTION     0.07     0.36  1373.36     0  01:15        0.34
  102                  JUNCTION     0.09     0.36  1369.36     0  01:18        0.32
  103                  JUNCTION     0.11     0.24  1374.24     0  01:15        0.23
  104                  JUNCTION     0.12     0.25  1372.25     0  01:20        0.24
  105                  JUNCTION     0.11     0.41  1374.41     0  01:15        0.40
  106                  OUTFALL      0.12     0.19     0.19     0  01:42        0.18
  Z16                  STORAGE      0.12     0.18  1311.59     0  01:42        0.18
  
  
  *******************
  Node Inflow Summary
  *******************
  
  -------------------------------------------------------------------------------------------------
                                  Maximum  Maximum                  Lateral       Total        Flow
                                  Lateral    Total  Time of Max      Inflow      Inflow     Balance
                                   Inflow   Inflow   Occurrence      Volume      Volume       Error
  Node                 Type           CMS      CMS  days hr:min    10^6 ltr    10^6 ltr     Percent
  -------------------------------------------------------------------------------------------------
  G2                   JUNCTION     0.149    3.222     0  00:00        1.97        4.42       0.000
  G3                   JUNCTION     0.414    2.255     0  00:06        1.19        6.47       0.000
  Z1                   JUNCTION     0.667    7.390     0  01:33        2.55        64.1       0.000
  D2                   JUNCTION     4.513    5.543     0  01:27        17.9        42.4       0.000
  D3                   JUNCTION     0.000    5.522     0  01:31           0          43       0.000
  D4                   JUNCTION     0.867    5.998     0  01:32        3.53        46.9       0.000
  S1                   JUNCTION     0.000    2.138     0  00:03           0           6       0.000
  S2                   JUNCTION     0.321    2.000     0  00:05        1.03        7.35       0.000
  Z2                   JUNCTION     0.184    7.553     0  01:36       0.839        65.9       0.000
  Z3                   JUNCTION     0.208    7.592     0  01:38       0.543        66.7       0.000
  Z4                   JUNCTION     0.352    7.691     0  01:42       0.619        68.7       0.000
  Z5                   JUNCTION     0.074    7.821     0  01:42       0.426        69.8      -0.000
  Z6                   JUNCTION     0.327    7.953     0  01:41       0.712        71.5       0.000
  Z7                   JUNCTION     0.164    7.965     0  01:42       0.316        71.8       0.000
  Z8                   JUNCTION     0.078    8.088     0  01:42       0.324          73       0.000
  Z9                   JUNCTION     0.231    8.329     0  01:42       0.454        75.6       0.000
  Z10                  JUNCTION     0.110    8.369     0  01:42       0.398        76.1       0.000
  Z11                  JUNCTION     0.043    8.599     0  01:41       0.218        77.9       0.000
  Z12                  JUNCTION     0.026    8.798     0  01:42       0.203        79.5       0.000
  Z13                  JUNCTION     0.123    8.926     0  01:41       0.271        80.8       0.000
  Z14                  JUNCTION     0.144    9.056     0  01:41       0.413        82.1       0.000
  Z15                  JUNCTION     0.128    9.176     0  01:42       0.371        83.3       0.000
  G1                   JUNCTION     0.000    0.000     0  00:00           0           0    -100.000
  D1                   JUNCTION     4.620    4.620     0  01:15        20.9        20.9      -0.107
  1                    JUNCTION     0.283    3.040     0  00:00        2.53        5.51       0.000
  5                    JUNCTION     0.462    0.462     0  01:15        2.08        2.08      -1.070
  6                    JUNCTION     0.293    0.293     0  01:15       0.626       0.626       0.000
  7                    JUNCTION     0.122    0.122     0  01:15       0.479       0.479       0.000
  8                    JUNCTION     0.099    0.213     0  01:19       0.258       0.681       0.000
  9                    JUNCTION     0.099    0.146     0  01:17       0.251       0.422       0.000
  10                   JUNCTION     0.100    0.223     0  01:17       0.316       0.818       0.000
  11                   JUNCTION     0.086    0.144     0  01:16       0.254       0.505       0.000
  12                   JUNCTION     0.072    0.072     0  01:15       0.252       0.252       0.000
  13                   JUNCTION     0.134    0.308     0  01:19        0.27        1.01       0.000
  14                   JUNCTION     0.108    0.235     0  01:19       0.247        0.74       0.000
  15                   JUNCTION     0.108    0.173     0  01:17       0.251       0.497       0.000
  16                   JUNCTION     0.107    0.107     0  01:15       0.249       0.249       0.000
  17                   JUNCTION     0.079    0.079     0  01:15       0.171       0.171      -0.000
  18                   JUNCTION     0.098    0.098     0  01:15       0.391       0.391      -0.000
  19                   JUNCTION     0.090    0.168     0  01:18       0.347       0.734       0.000
  20                   JUNCTION     0.087    0.233     0  01:19       0.317        1.05       0.000
  22                   JUNCTION     0.109    0.303     0  01:21       0.371        1.41       0.000
  23                   JUNCTION     0.095    0.095     0  01:15       0.372       0.372       0.000
  24                   JUNCTION     0.086    0.159     0  01:17       0.332       0.701      -0.000
  25                   JUNCTION     0.102    0.235     0  01:20       0.404         1.1       0.000
  26                   JUNCTION     0.122    0.320     0  01:23       0.498        1.59       0.000
  31                   JUNCTION     0.132    0.132     0  01:15       0.512       0.512       0.000
  35                   JUNCTION     0.323    0.400     0  01:15       0.891         1.4       0.000
  42                   JUNCTION     0.146    0.468     0  01:18       0.341        1.74       0.000
  47                   JUNCTION     0.203    0.533     0  01:20       0.385        2.11       0.000
  97                   JUNCTION     0.126    0.126     0  01:15       0.387       0.387       0.000
  99                   JUNCTION     0.142    0.226     0  01:18       0.464       0.847       0.000
  100                  JUNCTION     0.000    0.221     0  01:20           0       0.842       0.000
  101                  JUNCTION     0.215    0.215     0  01:15       0.422       0.422       0.000
  102                  JUNCTION     0.208    0.310     0  01:18       0.456       0.872       0.000
  103                  JUNCTION     0.095    0.095     0  01:15       0.555       0.555       0.000
  104                  JUNCTION     0.024    0.110     0  01:20       0.134       0.685       0.000
  105                  JUNCTION     0.351    0.351     0  01:15       0.969       0.969       0.000
  106                  OUTFALL      0.000    9.276     0  01:42           0          84       0.000
  Z16                  STORAGE      0.129    9.275     0  01:42       0.414        84.2       0.150
  
  
  *********************
  Node Flooding Summary
  *********************
  
  Flooding refers to all water that overflows a node, whether it ponds or not.
  --------------------------------------------------------------------------
                                                             Total   Maximum
                                 Maximum   Time of Max       Flood    Ponded
                        Hours       Rate    Occurrence      Volume    Volume
  Node                 Flooded       CMS   days hr:min    10^6 ltr   1000 m3
  --------------------------------------------------------------------------
  Z1                      0.01     0.750      0  00:00       0.022     0.000
  D4                      0.01     0.750      0  00:00       0.022     0.000
  
  
  **********************
  Storage Volume Summary
  **********************
  
  --------------------------------------------------------------------------------------------------
                         Average     Avg  Evap Exfil       Maximum     Max    Time of Max    Maximum
                          Volume    Pcnt  Pcnt  Pcnt        Volume    Pcnt     Occurrence    Outflow
  Storage Unit           1000 m3    Full  Loss  Loss       1000 m3    Full    days hr:min        CMS
  --------------------------------------------------------------------------------------------------
  Z16                      0.115       1     0     0         0.184       2       0  01:42      9.277
  
  
  ***********************
  Outfall Loading Summary
  ***********************
  
  -------------------------------------------------------------------------------------------------------------------
                         Flow       Avg       Max       Total         Total         Total         Total         Total
                         Freq      Flow      Flow      Volume           TSS            TN            TP   Temperature
  Outfall Node           Pcnt       CMS       CMS    10^6 ltr            kg            kg            kg            kg
  -------------------------------------------------------------------------------------------------------------------
  106                  100.00     3.891     9.276      84.020    269842.844      4326.421        59.615      1276.374
  -------------------------------------------------------------------------------------------------------------------
  System               100.00     3.891     9.276      84.020    269842.844      4326.421        59.615      1276.374
  
  
  ********************
  Link Flow Summary
  ********************
  
  -----------------------------------------------------------------------------
                                 Maximum  Time of Max   Maximum    Max/    Max/
                                  |Flow|   Occurrence   |Veloc|    Full    Full
  Link                 Type          CMS  days hr:min     m/sec    Flow   Depth
  -----------------------------------------------------------------------------
  GOLAB01              CONDUIT     2.255     0  00:06      1.96    0.03    0.08
  GOLAB02              CONDUIT     2.174     0  00:09      3.76    0.01    0.04
  DARBAND01            CONDUIT     5.522     0  01:31      1.82    0.06    0.15
  DARBAND02            CONDUIT     5.516     0  01:34      2.83    0.03    0.09
  DARBAND03            CONDUIT     5.992     0  01:34      2.61    0.04    0.10
  SAADABAD01           CONDUIT     2.000     0  00:05      1.52    0.01    0.05
  SAADABAD02           CONDUIT     1.879     0  00:08      3.84    0.05    0.10
  zargandeh03          CONDUIT     7.571     0  01:42      2.36    0.04    0.12
  zargandeh04          CONDUIT     7.691     0  01:42      3.11    0.05    0.14
  zargandeh05          CONDUIT     7.820     0  01:42      3.13    0.05    0.14
  zargandeh06          CONDUIT     7.953     0  01:42      3.49    0.05    0.13
  zargandeh07          CONDUIT     7.965     0  01:42      3.80    0.04    0.12
  zargandeh08          CONDUIT     8.087     0  01:43      3.52    0.05    0.13
  zargandeh09          CONDUIT     8.329     0  01:42      3.50    0.05    0.13
  zargandeh10          CONDUIT     8.369     0  01:42      4.03    0.04    0.12
  zargandeh11          CONDUIT     8.598     0  01:42      3.50    0.05    0.14
  zargandeh12          CONDUIT     8.798     0  01:42      3.41    0.06    0.14
  zargandeh01          CONDUIT     7.378     0  01:36      3.46    0.04    0.09
  zargandeh02          CONDUIT     7.544     0  01:38      2.70    0.03    0.10
  zargandeh13          CONDUIT     8.925     0  01:42      3.36    0.06    0.15
  zargandeh14          CONDUIT     9.054     0  01:42      3.69    0.05    0.14
  zargandeh15          CONDUIT     9.175     0  01:43      3.87    0.10    0.20
  1                    CONDUIT     3.222     0  00:00      3.77    0.11    0.11
  2                    CONDUIT     3.215     0  00:00      2.42    0.21    0.32
  3                    CONDUIT     2.138     0  00:03      2.19    0.05    0.13
  4                    CONDUIT     3.040     0  00:00      3.58    0.11    0.11
  5                    CONDUIT     0.107     0  01:20      0.76    0.00    0.02
  6                    CONDUIT     0.140     0  01:20      1.08    0.00    0.02
  7                    CONDUIT     0.205     0  01:22      1.09    0.00    0.02
  8                    CONDUIT     0.065     0  01:19      0.75    0.00    0.01
  9                    CONDUIT     0.066     0  01:18      1.54    0.02    0.10
  10                   CONDUIT     0.137     0  01:19      2.00    0.05    0.14
  11                   CONDUIT     0.217     0  01:20      2.27    0.07    0.18
  12                   CONDUIT     0.089     0  01:19      0.83    0.09    0.20
  13                   CONDUIT     0.164     0  01:20      0.97    0.17    0.27
  14                   CONDUIT     0.231     0  01:20      1.13    0.21    0.31
  15                   CONDUIT     0.298     0  01:22      1.10    0.32    0.39
  16                   CONDUIT     0.088     0  01:19      0.88    0.08    0.19
  17                   CONDUIT     0.163     0  01:21      1.09    0.14    0.25
  18                   CONDUIT     0.226     0  01:23      1.21    0.19    0.29
  19                   CONDUIT     0.300     0  01:24      1.09    0.31    0.38
  20                   CONDUIT     0.084     0  01:20      0.86    0.08    0.19
  21                   CONDUIT     0.153     0  01:22      0.99    0.14    0.26
  22                   CONDUIT     0.230     0  01:24      1.12    0.21    0.31
  23                   CONDUIT     0.318     0  01:25      1.29    0.27    0.35
  24                   CONDUIT     0.117     0  01:20      0.90    0.11    0.23
  25                   CONDUIT     0.362     0  01:19      1.11    0.42    0.45
  26                   CONDUIT     0.449     0  01:21      1.17    0.50    0.50
  27                   CONDUIT     0.527     0  01:23      1.28    0.55    0.53
  28                   CONDUIT     0.108     0  01:20      1.19    0.07    0.18
  29                   CONDUIT     0.221     0  01:20      1.35    0.15    0.27
  30                   CONDUIT     0.220     0  01:21      3.21    0.04    0.14
  31                   CONDUIT     0.163     0  01:20      0.89    0.21    0.30
  32                   CONDUIT     0.296     0  01:21      1.26    0.26    0.35
  33                   CONDUIT     0.088     0  01:21      0.65    0.12    0.23
  34                   CONDUIT     0.106     0  01:25      0.71    0.14    0.25
  35                   CONDUIT     0.301     0  01:19      1.17    0.31    0.38
  36                   CONDUIT     0.243     0  01:19      1.09    0.27    0.35
  37                   CONDUIT     9.276     0  01:42     43.72    0.00    0.05
  
  
  *************************
  Conduit Surcharge Summary
  *************************
  
  No conduits were surcharged.
  
  
  ***************************
  Link Pollutant Load Summary
  ***************************
  
  ----------------------------------------------------------------------------
                                 TSS            TN            TP   Temperature
  Link                            kg            kg            kg            kg
  ----------------------------------------------------------------------------
  GOLAB01                  2.674e+04       200.188         1.042        35.281
  GOLAB02                  3.084e+04       284.021         1.751        57.045
  DARBAND01                1.698e+05      2678.534        22.739       735.710
  DARBAND02                1.702e+05      2684.791        22.594       729.507
  DARBAND03                1.706e+05      2689.896        22.448       794.074
  SAADABAD01               1.281e+04       182.025         1.659        87.469
  SAADABAD02               1.699e+04       257.267         2.256       105.878
  zargandeh03              2.348e+05      3563.806        31.207      1011.945
  zargandeh04              2.396e+05      3671.896        32.985      1039.862
  zargandeh05              2.431e+05      3752.688        33.747      1056.745
  zargandeh06              2.495e+05      3869.375        34.255      1084.503
  zargandeh07              2.499e+05      3883.847        34.220      1085.824
  zargandeh08              2.536e+05      3962.877        34.556      1104.415
  zargandeh09              2.631e+05      4105.593        39.812      1151.833
  zargandeh10              2.637e+05      4109.436        41.547      1155.751
  zargandeh11              2.663e+05      4232.038        45.389      1186.427
  zargandeh12              2.670e+05      4278.453        49.259      1214.283
  zargandeh01              2.273e+05      3430.889        28.842       997.433
  zargandeh02              2.340e+05      3535.885        30.766      1016.082
  zargandeh13              2.681e+05      4336.352        56.039      1234.157
  zargandeh14              2.689e+05      4334.867        56.822      1251.032
  zargandeh15              2.697e+05      4333.707        59.545      1266.009
  1                            0.000         0.000         0.000         0.000
  2                        1.017e+05      1696.778        10.801       387.931
  3                        1.270e+04       180.348         1.676        88.889
  4                        1.045e+04       146.083         1.469        40.320
  5                          524.058         1.039         0.004         9.540
  6                          449.324         0.902         0.317         8.418
  7                          748.719         1.498         0.512        13.581
  8                          181.478         0.367         0.128         3.414
  9                          253.898         0.510         0.197         5.023
  10                         507.804         1.024         0.392        10.031
  11                         842.930         1.705         0.636        16.251
  12                         245.253        14.881         1.325         4.906
  13                         498.661        25.255         2.657         9.823
  14                         756.106        35.775         3.978        14.691
  15                        1062.617        48.452         5.409        19.968
  16                         470.900        23.533         2.141         7.750
  17                         831.435        45.127         4.036        14.603
  18                         843.892        45.935         3.999        20.780
  19                         854.243        46.591         3.965        28.051
  20                         374.668        29.985         0.873         7.381
  21                         931.107        51.041         1.649        13.933
  22                        1635.744        77.638         2.591        21.852
  23                        2502.444       110.293         3.756        31.641
  24                        2068.363        30.935         1.200        10.149
  25                        5369.581        86.504         3.067        27.853
  26                        7007.226       112.239         3.810        34.524
  27                        8747.205       139.324         4.648        42.064
  28                        1492.165        29.878         0.149         7.642
  29                        3367.973        67.611         0.328        16.827
  30                        3543.262        71.569         0.328        16.787
  31                        1668.364        34.557         0.150         8.292
  32                        4083.755        73.587         0.327        17.245
  33                        2555.248        51.102         0.448        10.994
  34                        3287.699        65.774         0.555        13.529
  35                        4508.774        72.128         1.415        19.198
  36                        2904.465        47.352         0.904        12.354
  37                       2.698e+05      4326.421        59.615      1276.374
  

  Analysis begun on:  Fri Nov 29 09:07:07 2019
  Analysis ended on:  Fri Nov 29 09:07:07 2019
  Total elapsed time: < 1 sec