
  EPA STORM WATER MANAGEMENT MODEL - VERSION 5.1 (Build 5.1.013)
  --------------------------------------------------------------

  WARNING 03: negative offset ignored for Link GOLAB02
  WARNING 03: negative offset ignored for Link 30
  WARNING 08: elevation drop exceeds length for Conduit 37
  
  *********************************************************
  NOTE: The summary statistics displayed in this report are
  based on results found at every computational time step,  
  not just on results from each reporting time step.
  *********************************************************
  
  ****************
  Analysis Options
  ****************
  Flow Units ............... CMS
  Process Models:
    Rainfall/Runoff ........ YES
    RDII ................... NO
    Snowmelt ............... NO
    Groundwater ............ NO
    Flow Routing ........... YES
    Ponding Allowed ........ NO
    Water Quality .......... YES
  Infiltration Method ...... HORTON
  Flow Routing Method ...... KINWAVE
  Starting Date ............ 10/20/2014 00:00:00
  Ending Date .............. 10/20/2014 06:00:00
  Antecedent Dry Days ...... 0.0
  Report Time Step ......... 00:15:00
  Wet Time Step ............ 00:05:00
  Dry Time Step ............ 01:00:00
  Routing Time Step ........ 30.00 sec
  
  
  **************************        Volume         Depth
  Runoff Quantity Continuity     hectare-m            mm
  **************************     ---------       -------
  Total Precipitation ......         0.000         0.000
  Evaporation Loss .........         0.000         0.000
  Infiltration Loss ........         0.000         0.000
  Surface Runoff ...........         0.000         0.000
  Final Storage ............         0.000         0.000
  Continuity Error (%) .....         0.000
  
  
  **************************           TSS            TN            TP   Temperature
  Runoff Quality Continuity             kg            kg            kg            kg
  **************************    ----------    ----------    ----------    ----------
  Initial Buildup ..........    314470.070      4769.527       265.156         0.000
  Surface Buildup ..........         0.000         0.000         0.000         0.000
  Wet Deposition ...........         0.000         0.000         0.000         0.000
  Sweeping Removal .........         0.000         0.000         0.000         0.000
  Infiltration Loss ........         0.000         0.000         0.000         0.000
  BMP Removal ..............         0.000         0.000         0.000         0.000
  Surface Runoff ...........         0.000         0.000         0.000         0.000
  Remaining Buildup ........    314470.070      4769.527       265.156         0.000
  Continuity Error (%) .....         0.000         0.000         0.000         0.000
  
  
  **************************        Volume        Volume
  Flow Routing Continuity        hectare-m      10^6 ltr
  **************************     ---------     ---------
  Dry Weather Inflow .......         0.000         0.000
  Wet Weather Inflow .......         0.000         0.000
  Groundwater Inflow .......         0.000         0.000
  RDII Inflow ..............         0.000         0.000
  External Inflow ..........         0.000         0.000
  External Outflow .........         0.000         0.000
  Flooding Loss ............         0.000         0.000
  Evaporation Loss .........         0.000         0.000
  Exfiltration Loss ........         0.000         0.000
  Initial Stored Volume ....         1.708        17.082
  Final Stored Volume ......         1.708        17.082
  Continuity Error (%) .....         0.000
  
  
  **************************           TSS            TN            TP   Temperature
  Quality Routing Continuity            kg            kg            kg            kg
  **************************    ----------    ----------    ----------    ----------
  Dry Weather Inflow .......         0.000         0.000         0.000         0.000
  Wet Weather Inflow .......         0.000         0.000         0.000         0.000
  Groundwater Inflow .......         0.000         0.000         0.000         0.000
  RDII Inflow ..............         0.000         0.000         0.000         0.000
  External Inflow ..........         0.000         0.000         0.000         0.000
  External Outflow .........         0.000         0.000         0.000         0.000
  Flooding Loss ............         0.000         0.000         0.000         0.000
  Exfiltration Loss ........         0.000         0.000         0.000         0.000
  Mass Reacted .............         0.000         0.000         0.000         0.000
  Initial Stored Mass ......         0.000         0.000         0.000         0.000
  Final Stored Mass ........         0.000         0.000         0.000         0.000
  Continuity Error (%) .....         0.000         0.000         0.000         0.000
  
  
  ********************************
  Highest Flow Instability Indexes
  ********************************
  All links are stable.
  
  
  ***************************
  Subcatchment Runoff Summary
  ***************************
  
  ------------------------------------------------------------------------------------------------------------------------------
                            Total      Total      Total      Total     Imperv       Perv      Total       Total     Peak  Runoff
                           Precip      Runon       Evap      Infil     Runoff     Runoff     Runoff      Runoff   Runoff   Coeff
  Subcatchment                 mm         mm         mm         mm         mm         mm         mm    10^6 ltr      CMS
  ------------------------------------------------------------------------------------------------------------------------------
  21                         0.00       0.00       0.00       0.00       0.00       0.00       0.00        0.00     0.00   0.000
  27                         0.00       0.00       0.00       0.00       0.00       0.00       0.00        0.00     0.00   0.000
  28                         0.00       0.00       0.00       0.00       0.00       0.00       0.00        0.00     0.00   0.000
  29                         0.00       0.00       0.00       0.00       0.00       0.00       0.00        0.00     0.00   0.000
  30                         0.00       0.00       0.00       0.00       0.00       0.00       0.00        0.00     0.00   0.000
  .1                         0.00       0.00       0.00       0.00       0.00       0.00       0.00        0.00     0.00   0.000
  32                         0.00       0.00       0.00       0.00       0.00       0.00       0.00        0.00     0.00   0.000
  33                         0.00       0.00       0.00       0.00       0.00       0.00       0.00        0.00     0.00   0.000
  34                         0.00       0.00       0.00       0.00       0.00       0.00       0.00        0.00     0.00   0.000
  36                         0.00       0.00       0.00       0.00       0.00       0.00       0.00        0.00     0.00   0.000
  37                         0.00       0.00       0.00       0.00       0.00       0.00       0.00        0.00     0.00   0.000
  38                         0.00       0.00       0.00       0.00       0.00       0.00       0.00        0.00     0.00   0.000
  39                         0.00       0.00       0.00       0.00       0.00       0.00       0.00        0.00     0.00   0.000
  40                         0.00       0.00       0.00       0.00       0.00       0.00       0.00        0.00     0.00   0.000
  41                         0.00       0.00       0.00       0.00       0.00       0.00       0.00        0.00     0.00   0.000
  43                         0.00       0.00       0.00       0.00       0.00       0.00       0.00        0.00     0.00   0.000
  44                         0.00       0.00       0.00       0.00       0.00       0.00       0.00        0.00     0.00   0.000
  45                         0.00       0.00       0.00       0.00       0.00       0.00       0.00        0.00     0.00   0.000
  46                         0.00       0.00       0.00       0.00       0.00       0.00       0.00        0.00     0.00   0.000
  48                         0.00       0.00       0.00       0.00       0.00       0.00       0.00        0.00     0.00   0.000
  49                         0.00       0.00       0.00       0.00       0.00       0.00       0.00        0.00     0.00   0.000
  50                         0.00       0.00       0.00       0.00       0.00       0.00       0.00        0.00     0.00   0.000
  51                         0.00       0.00       0.00       0.00       0.00       0.00       0.00        0.00     0.00   0.000
  52                         0.00       0.00       0.00       0.00       0.00       0.00       0.00        0.00     0.00   0.000
  53                         0.00       0.00       0.00       0.00       0.00       0.00       0.00        0.00     0.00   0.000
  54                         0.00       0.00       0.00       0.00       0.00       0.00       0.00        0.00     0.00   0.000
  55                         0.00       0.00       0.00       0.00       0.00       0.00       0.00        0.00     0.00   0.000
  56                         0.00       0.00       0.00       0.00       0.00       0.00       0.00        0.00     0.00   0.000
  57                         0.00       0.00       0.00       0.00       0.00       0.00       0.00        0.00     0.00   0.000
  58                         0.00       0.00       0.00       0.00       0.00       0.00       0.00        0.00     0.00   0.000
  59                         0.00       0.00       0.00       0.00       0.00       0.00       0.00        0.00     0.00   0.000
  60                         0.00       0.00       0.00       0.00       0.00       0.00       0.00        0.00     0.00   0.000
  61                         0.00       0.00       0.00       0.00       0.00       0.00       0.00        0.00     0.00   0.000
  62                         0.00       0.00       0.00       0.00       0.00       0.00       0.00        0.00     0.00   0.000
  63                         0.00       0.00       0.00       0.00       0.00       0.00       0.00        0.00     0.00   0.000
  64                         0.00       0.00       0.00       0.00       0.00       0.00       0.00        0.00     0.00   0.000
  65                         0.00       0.00       0.00       0.00       0.00       0.00       0.00        0.00     0.00   0.000
  66                         0.00       0.00       0.00       0.00       0.00       0.00       0.00        0.00     0.00   0.000
  67                         0.00       0.00       0.00       0.00       0.00       0.00       0.00        0.00     0.00   0.000
  68                         0.00       0.00       0.00       0.00       0.00       0.00       0.00        0.00     0.00   0.000
  69                         0.00       0.00       0.00       0.00       0.00       0.00       0.00        0.00     0.00   0.000
  70                         0.00       0.00       0.00       0.00       0.00       0.00       0.00        0.00     0.00   0.000
  71                         0.00       0.00       0.00       0.00       0.00       0.00       0.00        0.00     0.00   0.000
  72                         0.00       0.00       0.00       0.00       0.00       0.00       0.00        0.00     0.00   0.000
  73                         0.00       0.00       0.00       0.00       0.00       0.00       0.00        0.00     0.00   0.000
  74                         0.00       0.00       0.00       0.00       0.00       0.00       0.00        0.00     0.00   0.000
  75                         0.00       0.00       0.00       0.00       0.00       0.00       0.00        0.00     0.00   0.000
  76                         0.00       0.00       0.00       0.00       0.00       0.00       0.00        0.00     0.00   0.000
  77                         0.00       0.00       0.00       0.00       0.00       0.00       0.00        0.00     0.00   0.000
  78                         0.00       0.00       0.00       0.00       0.00       0.00       0.00        0.00     0.00   0.000
  79                         0.00       0.00       0.00       0.00       0.00       0.00       0.00        0.00     0.00   0.000
  80                         0.00       0.00       0.00       0.00       0.00       0.00       0.00        0.00     0.00   0.000
  81                         0.00       0.00       0.00       0.00       0.00       0.00       0.00        0.00     0.00   0.000
  82                         0.00       0.00       0.00       0.00       0.00       0.00       0.00        0.00     0.00   0.000
  83                         0.00       0.00       0.00       0.00       0.00       0.00       0.00        0.00     0.00   0.000
  84                         0.00       0.00       0.00       0.00       0.00       0.00       0.00        0.00     0.00   0.000
  85                         0.00       0.00       0.00       0.00       0.00       0.00       0.00        0.00     0.00   0.000
  86                         0.00       0.00       0.00       0.00       0.00       0.00       0.00        0.00     0.00   0.000
  87                         0.00       0.00       0.00       0.00       0.00       0.00       0.00        0.00     0.00   0.000
  88                         0.00       0.00       0.00       0.00       0.00       0.00       0.00        0.00     0.00   0.000
  89                         0.00       0.00       0.00       0.00       0.00       0.00       0.00        0.00     0.00   0.000
  90                         0.00       0.00       0.00       0.00       0.00       0.00       0.00        0.00     0.00   0.000
  91                         0.00       0.00       0.00       0.00       0.00       0.00       0.00        0.00     0.00   0.000
  92                         0.00       0.00       0.00       0.00       0.00       0.00       0.00        0.00     0.00   0.000
  93                         0.00       0.00       0.00       0.00       0.00       0.00       0.00        0.00     0.00   0.000
  94                         0.00       0.00       0.00       0.00       0.00       0.00       0.00        0.00     0.00   0.000
  95                         0.00       0.00       0.00       0.00       0.00       0.00       0.00        0.00     0.00   0.000
  96                         0.00       0.00       0.00       0.00       0.00       0.00       0.00        0.00     0.00   0.000
  98                         0.00       0.00       0.00       0.00       0.00       0.00       0.00        0.00     0.00   0.000
  2                          0.00       0.00       0.00       0.00       0.00       0.00       0.00        0.00     0.00   0.000
  3                          0.00       0.00       0.00       0.00       0.00       0.00       0.00        0.00     0.00   0.000
  4                          0.00       0.00       0.00       0.00       0.00       0.00       0.00        0.00     0.00   0.000
  
  
  ****************************
  Subcatchment Washoff Summary
  ****************************
  
  ----------------------------------------------------------------------------
                                 TSS            TN            TP   Temperature
  Subcatchment                    kg            kg            kg            kg
  ----------------------------------------------------------------------------
  21                           0.000         0.000         0.000         0.000
  27                           0.000         0.000         0.000         0.000
  28                           0.000         0.000         0.000         0.000
  29                           0.000         0.000         0.000         0.000
  30                           0.000         0.000         0.000         0.000
  .1                           0.000         0.000         0.000         0.000
  32                           0.000         0.000         0.000         0.000
  33                           0.000         0.000         0.000         0.000
  34                           0.000         0.000         0.000         0.000
  36                           0.000         0.000         0.000         0.000
  37                           0.000         0.000         0.000         0.000
  38                           0.000         0.000         0.000         0.000
  39                           0.000         0.000         0.000         0.000
  40                           0.000         0.000         0.000         0.000
  41                           0.000         0.000         0.000         0.000
  43                           0.000         0.000         0.000         0.000
  44                           0.000         0.000         0.000         0.000
  45                           0.000         0.000         0.000         0.000
  46                           0.000         0.000         0.000         0.000
  48                           0.000         0.000         0.000         0.000
  49                           0.000         0.000         0.000         0.000
  50                           0.000         0.000         0.000         0.000
  51                           0.000         0.000         0.000         0.000
  52                           0.000         0.000         0.000         0.000
  53                           0.000         0.000         0.000         0.000
  54                           0.000         0.000         0.000         0.000
  55                           0.000         0.000         0.000         0.000
  56                           0.000         0.000         0.000         0.000
  57                           0.000         0.000         0.000         0.000
  58                           0.000         0.000         0.000         0.000
  59                           0.000         0.000         0.000         0.000
  60                           0.000         0.000         0.000         0.000
  61                           0.000         0.000         0.000         0.000
  62                           0.000         0.000         0.000         0.000
  63                           0.000         0.000         0.000         0.000
  64                           0.000         0.000         0.000         0.000
  65                           0.000         0.000         0.000         0.000
  66                           0.000         0.000         0.000         0.000
  67                           0.000         0.000         0.000         0.000
  68                           0.000         0.000         0.000         0.000
  69                           0.000         0.000         0.000         0.000
  70                           0.000         0.000         0.000         0.000
  71                           0.000         0.000         0.000         0.000
  72                           0.000         0.000         0.000         0.000
  73                           0.000         0.000         0.000         0.000
  74                           0.000         0.000         0.000         0.000
  75                           0.000         0.000         0.000         0.000
  76                           0.000         0.000         0.000         0.000
  77                           0.000         0.000         0.000         0.000
  78                           0.000         0.000         0.000         0.000
  79                           0.000         0.000         0.000         0.000
  80                           0.000         0.000         0.000         0.000
  81                           0.000         0.000         0.000         0.000
  82                           0.000         0.000         0.000         0.000
  83                           0.000         0.000         0.000         0.000
  84                           0.000         0.000         0.000         0.000
  85                           0.000         0.000         0.000         0.000
  86                           0.000         0.000         0.000         0.000
  87                           0.000         0.000         0.000         0.000
  88                           0.000         0.000         0.000         0.000
  89                           0.000         0.000         0.000         0.000
  90                           0.000         0.000         0.000         0.000
  91                           0.000         0.000         0.000         0.000
  92                           0.000         0.000         0.000         0.000
  93                           0.000         0.000         0.000         0.000
  94                           0.000         0.000         0.000         0.000
  95                           0.000         0.000         0.000         0.000
  96                           0.000         0.000         0.000         0.000
  98                           0.000         0.000         0.000         0.000
  2                            0.000         0.000         0.000         0.000
  3                            0.000         0.000         0.000         0.000
  4                            0.000         0.000         0.000         0.000
  ----------------------------------------------------------------------------
  System                       0.000         0.000         0.000         0.000
  
  
  ******************
  Node Depth Summary
  ******************
  
  ---------------------------------------------------------------------------------
                                 Average  Maximum  Maximum  Time of Max    Reported
                                   Depth    Depth      HGL   Occurrence   Max Depth
  Node                 Type       Meters   Meters   Meters  days hr:min      Meters
  ---------------------------------------------------------------------------------
  G2                   JUNCTION  -nan(ind)     0.00  1429.49     0  00:00        0.00
  G3                   JUNCTION  -nan(ind)     0.00  1417.94     0  00:00        0.00
  Z1                   JUNCTION  -nan(ind)     0.00  1408.26     0  00:00        0.00
  D2                   JUNCTION  -nan(ind)     0.00  1429.76     0  00:00        0.00
  D3                   JUNCTION  -nan(ind)     0.00  1424.66     0  00:00        0.00
  D4                   JUNCTION  -nan(ind)     0.00  1413.66     0  00:00        0.00
  S1                   JUNCTION  -nan(ind)     0.00  1424.26     0  00:00        0.00
  S2                   JUNCTION  -nan(ind)     0.00  1421.26     0  00:00        0.00
  Z2                   JUNCTION  -nan(ind)     0.00  1393.86     0  00:00        0.00
  Z3                   JUNCTION  -nan(ind)     0.00  1383.96     0  00:00        0.00
  Z4                   JUNCTION  -nan(ind)     0.00  1371.06     0  00:00        0.00
  Z5                   JUNCTION  -nan(ind)     0.00  1369.71     0  00:00        0.00
  Z6                   JUNCTION  -nan(ind)     0.00  1366.41     0  00:00        0.00
  Z7                   JUNCTION  -nan(ind)     0.00  1363.82     0  00:00        0.00
  Z8                   JUNCTION  -nan(ind)     0.00  1354.34     0  00:00        0.00
  Z9                   JUNCTION  -nan(ind)     0.00  1348.94     0  00:00        0.00
  Z10                  JUNCTION  -nan(ind)     0.00  1347.17     0  00:00        0.00
  Z11                  JUNCTION  -nan(ind)     0.00  1342.50     0  00:00        0.00
  Z12                  JUNCTION  -nan(ind)     0.00  1336.76     0  00:00        0.00
  Z13                  JUNCTION  -nan(ind)     0.00  1334.67     0  00:00        0.00
  Z14                  JUNCTION  -nan(ind)     0.00  1330.21     0  00:00        0.00
  Z15                  JUNCTION  -nan(ind)     0.00  1317.69     0  00:00        0.00
  G1                   JUNCTION  -nan(ind)     0.00  1442.88     0  00:00        0.00
  D1                   JUNCTION  -nan(ind)     0.00  1439.00     0  00:00        0.00
  1                    JUNCTION  -nan(ind)     0.00  1434.00     0  00:00        0.00
  5                    JUNCTION  -nan(ind)     0.00  1444.00     0  00:00        0.00
  6                    JUNCTION  -nan(ind)     0.00  1397.00     0  00:00        0.00
  7                    JUNCTION  -nan(ind)     0.00  1313.00     0  00:00        0.00
  8                    JUNCTION  -nan(ind)     0.00  1320.00     0  00:00        0.00
  9                    JUNCTION  -nan(ind)     0.00  1323.00     0  00:00        0.00
  10                   JUNCTION  -nan(ind)     0.00  1333.00     0  00:00        0.00
  11                   JUNCTION  -nan(ind)     0.00  1336.00     0  00:00        0.00
  12                   JUNCTION  -nan(ind)     0.00  1338.00     0  00:00        0.00
  13                   JUNCTION  -nan(ind)     0.00  1337.00     0  00:00        0.00
  14                   JUNCTION  -nan(ind)     0.00  1339.00     0  00:00        0.00
  15                   JUNCTION  -nan(ind)     0.00  1341.00     0  00:00        0.00
  16                   JUNCTION  -nan(ind)     0.00  1343.00     0  00:00        0.00
  17                   JUNCTION  -nan(ind)     0.00  1325.00     0  00:00        0.00
  18                   JUNCTION  -nan(ind)     0.00  1345.00     0  00:00        0.00
  19                   JUNCTION  -nan(ind)     0.00  1343.00     0  00:00        0.00
  20                   JUNCTION  -nan(ind)     0.00  1341.00     0  00:00        0.00
  22                   JUNCTION  -nan(ind)     0.00  1338.00     0  00:00        0.00
  23                   JUNCTION  -nan(ind)     0.00  1351.00     0  00:00        0.00
  24                   JUNCTION  -nan(ind)     0.00  1349.00     0  00:00        0.00
  25                   JUNCTION  -nan(ind)     0.00  1347.00     0  00:00        0.00
  26                   JUNCTION  -nan(ind)     0.00  1344.50     0  00:00        0.00
  31                   JUNCTION  -nan(ind)     0.00  1358.00     0  00:00        0.00
  35                   JUNCTION  -nan(ind)     0.00  1355.00     0  00:00        0.00
  42                   JUNCTION  -nan(ind)     0.00  1353.00     0  00:00        0.00
  47                   JUNCTION  -nan(ind)     0.00  1351.00     0  00:00        0.00
  97                   JUNCTION  -nan(ind)     0.00  1382.00     0  00:00        0.00
  99                   JUNCTION  -nan(ind)     0.00  1378.00     0  00:00        0.00
  100                  JUNCTION  -nan(ind)     0.00  1376.00     0  00:00        0.00
  101                  JUNCTION  -nan(ind)     0.00  1373.00     0  00:00        0.00
  102                  JUNCTION  -nan(ind)     0.00  1369.00     0  00:00        0.00
  103                  JUNCTION  -nan(ind)     0.00  1374.00     0  00:00        0.00
  104                  JUNCTION  -nan(ind)     0.00  1372.00     0  00:00        0.00
  105                  JUNCTION  -nan(ind)     0.00  1374.00     0  00:00        0.00
  106                  OUTFALL   -nan(ind)     0.00     0.00     0  00:00        0.00
  Z16                  STORAGE   -nan(ind)     0.00  1311.41     0  00:00        0.00
  
  
  *******************
  Node Inflow Summary
  *******************
  
  -------------------------------------------------------------------------------------------------
                                  Maximum  Maximum                  Lateral       Total        Flow
                                  Lateral    Total  Time of Max      Inflow      Inflow     Balance
                                   Inflow   Inflow   Occurrence      Volume      Volume       Error
  Node                 Type           CMS      CMS  days hr:min    10^6 ltr    10^6 ltr     Percent
  -------------------------------------------------------------------------------------------------
  G2                   JUNCTION     0.000    0.000     0  00:00           0           0       0.000 ltr
  G3                   JUNCTION     0.000    0.000     0  00:00           0           0       0.000 ltr
  Z1                   JUNCTION     0.000    0.000     0  00:00           0           0       0.000 ltr
  D2                   JUNCTION     0.000    0.000     0  00:00           0           0       0.000 ltr
  D3                   JUNCTION     0.000    0.000     0  00:00           0           0       0.000 ltr
  D4                   JUNCTION     0.000    0.000     0  00:00           0           0       0.000 ltr
  S1                   JUNCTION     0.000    0.000     0  00:00           0           0       0.000 ltr
  S2                   JUNCTION     0.000    0.000     0  00:00           0           0       0.000 ltr
  Z2                   JUNCTION     0.000    0.000     0  00:00           0           0       0.000 ltr
  Z3                   JUNCTION     0.000    0.000     0  00:00           0           0       0.000 ltr
  Z4                   JUNCTION     0.000    0.000     0  00:00           0           0       0.000 ltr
  Z5                   JUNCTION     0.000    0.000     0  00:00           0           0       0.000 ltr
  Z6                   JUNCTION     0.000    0.000     0  00:00           0           0       0.000 ltr
  Z7                   JUNCTION     0.000    0.000     0  00:00           0           0       0.000 ltr
  Z8                   JUNCTION     0.000    0.000     0  00:00           0           0       0.000 ltr
  Z9                   JUNCTION     0.000    0.000     0  00:00           0           0       0.000 ltr
  Z10                  JUNCTION     0.000    0.000     0  00:00           0           0       0.000 ltr
  Z11                  JUNCTION     0.000    0.000     0  00:00           0           0       0.000 ltr
  Z12                  JUNCTION     0.000    0.000     0  00:00           0           0       0.000 ltr
  Z13                  JUNCTION     0.000    0.000     0  00:00           0           0       0.000 ltr
  Z14                  JUNCTION     0.000    0.000     0  00:00           0           0       0.000 ltr
  Z15                  JUNCTION     0.000    0.000     0  00:00           0           0       0.000 ltr
  G1                   JUNCTION     0.000    0.000     0  00:00           0           0       0.000 ltr
  D1                   JUNCTION     0.000    0.000     0  00:00           0           0       0.000 ltr
  1                    JUNCTION     0.000    0.000     0  00:00           0           0       0.000 ltr
  5                    JUNCTION     0.000    0.000     0  00:00           0           0       0.000 ltr
  6                    JUNCTION     0.000    0.000     0  00:00           0           0       0.000 ltr
  7                    JUNCTION     0.000    0.000     0  00:00           0           0       0.000 ltr
  8                    JUNCTION     0.000    0.000     0  00:00           0           0       0.000 ltr
  9                    JUNCTION     0.000    0.000     0  00:00           0           0       0.000 ltr
  10                   JUNCTION     0.000    0.000     0  00:00           0           0       0.000 ltr
  11                   JUNCTION     0.000    0.000     0  00:00           0           0       0.000 ltr
  12                   JUNCTION     0.000    0.000     0  00:00           0           0       0.000 ltr
  13                   JUNCTION     0.000    0.000     0  00:00           0           0       0.000 ltr
  14                   JUNCTION     0.000    0.000     0  00:00           0           0       0.000 ltr
  15                   JUNCTION     0.000    0.000     0  00:00           0           0       0.000 ltr
  16                   JUNCTION     0.000    0.000     0  00:00           0           0       0.000 ltr
  17                   JUNCTION     0.000    0.000     0  00:00           0           0       0.000 ltr
  18                   JUNCTION     0.000    0.000     0  00:00           0           0       0.000 ltr
  19                   JUNCTION     0.000    0.000     0  00:00           0           0       0.000 ltr
  20                   JUNCTION     0.000    0.000     0  00:00           0           0       0.000 ltr
  22                   JUNCTION     0.000    0.000     0  00:00           0           0       0.000 ltr
  23                   JUNCTION     0.000    0.000     0  00:00           0           0       0.000 ltr
  24                   JUNCTION     0.000    0.000     0  00:00           0           0       0.000 ltr
  25                   JUNCTION     0.000    0.000     0  00:00           0           0       0.000 ltr
  26                   JUNCTION     0.000    0.000     0  00:00           0           0       0.000 ltr
  31                   JUNCTION     0.000    0.000     0  00:00           0           0       0.000 ltr
  35                   JUNCTION     0.000    0.000     0  00:00           0           0       0.000 ltr
  42                   JUNCTION     0.000    0.000     0  00:00           0           0       0.000 ltr
  47                   JUNCTION     0.000    0.000     0  00:00           0           0       0.000 ltr
  97                   JUNCTION     0.000    0.000     0  00:00           0           0       0.000 ltr
  99                   JUNCTION     0.000    0.000     0  00:00           0           0       0.000 ltr
  100                  JUNCTION     0.000    0.000     0  00:00           0           0       0.000 ltr
  101                  JUNCTION     0.000    0.000     0  00:00           0           0       0.000 ltr
  102                  JUNCTION     0.000    0.000     0  00:00           0           0       0.000 ltr
  103                  JUNCTION     0.000    0.000     0  00:00           0           0       0.000 ltr
  104                  JUNCTION     0.000    0.000     0  00:00           0           0       0.000 ltr
  105                  JUNCTION     0.000    0.000     0  00:00           0           0       0.000 ltr
  106                  OUTFALL      0.000    0.000     0  00:00           0           0       0.000 ltr
  Z16                  STORAGE      0.000    0.000     0  00:00           0           0       0.000 ltr
  
  
  *********************
  Node Flooding Summary
  *********************
  
  No nodes were flooded.
  
  
  **********************
  Storage Volume Summary
  **********************
  
  --------------------------------------------------------------------------------------------------
                         Average     Avg  Evap Exfil       Maximum     Max    Time of Max    Maximum
                          Volume    Pcnt  Pcnt  Pcnt        Volume    Pcnt     Occurrence    Outflow
  Storage Unit           1000 m3    Full  Loss  Loss       1000 m3    Full    days hr:min        CMS
  --------------------------------------------------------------------------------------------------
  Z16                  -nan(ind)    -nan(ind)     0     0         0.000       0       0  00:00      0.000
  
  
  ***********************
  Outfall Loading Summary
  ***********************
  
  -------------------------------------------------------------------------------------------------------------------
                         Flow       Avg       Max       Total         Total         Total         Total         Total
                         Freq      Flow      Flow      Volume           TSS            TN            TP   Temperature
  Outfall Node           Pcnt       CMS       CMS    10^6 ltr            kg            kg            kg            kg
  -------------------------------------------------------------------------------------------------------------------
  106                 -nan(ind)     0.000     0.000       0.000         0.000         0.000         0.000         0.000
  -------------------------------------------------------------------------------------------------------------------
  System              -nan(ind)     0.000     0.000       0.000         0.000         0.000         0.000         0.000
  
  
  ********************
  Link Flow Summary
  ********************
  
  -----------------------------------------------------------------------------
                                 Maximum  Time of Max   Maximum    Max/    Max/
                                  |Flow|   Occurrence   |Veloc|    Full    Full
  Link                 Type          CMS  days hr:min     m/sec    Flow   Depth
  -----------------------------------------------------------------------------
  GOLAB01              CONDUIT     0.000     0  00:00      0.00    0.00    0.00
  GOLAB02              CONDUIT     0.000     0  00:00      0.00    0.00    0.00
  DARBAND01            CONDUIT     0.000     0  00:00      0.00    0.00    0.00
  DARBAND02            CONDUIT     0.000     0  00:00      0.00    0.00    0.00
  DARBAND03            CONDUIT     0.000     0  00:00      0.00    0.00    0.00
  SAADABAD01           CONDUIT     0.000     0  00:00      0.00    0.00    0.00
  SAADABAD02           CONDUIT     0.000     0  00:00      0.00    0.00    0.00
  zargandeh03          CONDUIT     0.000     0  00:00      0.00    0.00    0.00
  zargandeh04          CONDUIT     0.000     0  00:00      0.00    0.00    0.00
  zargandeh05          CONDUIT     0.000     0  00:00      0.00    0.00    0.00
  zargandeh06          CONDUIT     0.000     0  00:00      0.00    0.00    0.00
  zargandeh07          CONDUIT     0.000     0  00:00      0.00    0.00    0.00
  zargandeh08          CONDUIT     0.000     0  00:00      0.00    0.00    0.00
  zargandeh09          CONDUIT     0.000     0  00:00      0.00    0.00    0.00
  zargandeh10          CONDUIT     0.000     0  00:00      0.00    0.00    0.00
  zargandeh11          CONDUIT     0.000     0  00:00      0.00    0.00    0.00
  zargandeh12          CONDUIT     0.000     0  00:00      0.00    0.00    0.00
  zargandeh01          CONDUIT     0.000     0  00:00      0.00    0.00    0.00
  zargandeh02          CONDUIT     0.000     0  00:00      0.00    0.00    0.00
  zargandeh13          CONDUIT     0.000     0  00:00      0.00    0.00    0.00
  zargandeh14          CONDUIT     0.000     0  00:00      0.00    0.00    0.00
  zargandeh15          CONDUIT     0.000     0  00:00      0.00    0.00    0.00
  1                    CONDUIT     0.000     0  00:00      0.00    0.00    0.00
  2                    CONDUIT     0.000     0  00:00      0.00    0.00    0.00
  3                    CONDUIT     0.000     0  00:00      0.00    0.00    0.00
  4                    CONDUIT     0.000     0  00:00      0.00    0.00    0.00
  5                    CONDUIT     0.000     0  00:00      0.00    0.00    0.00
  6                    CONDUIT     0.000     0  00:00      0.00    0.00    0.00
  7                    CONDUIT     0.000     0  00:00      0.00    0.00    0.00
  8                    CONDUIT     0.000     0  00:00      0.00    0.00    0.00
  9                    CONDUIT     0.000     0  00:00      0.00    0.00    0.00
  10                   CONDUIT     0.000     0  00:00      0.00    0.00    0.00
  11                   CONDUIT     0.000     0  00:00      0.00    0.00    0.00
  12                   CONDUIT     0.000     0  00:00      0.00    0.00    0.00
  13                   CONDUIT     0.000     0  00:00      0.00    0.00    0.00
  14                   CONDUIT     0.000     0  00:00      0.00    0.00    0.00
  15                   CONDUIT     0.000     0  00:00      0.00    0.00    0.00
  16                   CONDUIT     0.000     0  00:00      0.00    0.00    0.00
  17                   CONDUIT     0.000     0  00:00      0.00    0.00    0.00
  18                   CONDUIT     0.000     0  00:00      0.00    0.00    0.00
  19                   CONDUIT     0.000     0  00:00      0.00    0.00    0.00
  20                   CONDUIT     0.000     0  00:00      0.00    0.00    0.00
  21                   CONDUIT     0.000     0  00:00      0.00    0.00    0.00
  22                   CONDUIT     0.000     0  00:00      0.00    0.00    0.00
  23                   CONDUIT     0.000     0  00:00      0.00    0.00    0.00
  24                   CONDUIT     0.000     0  00:00      0.00    0.00    0.00
  25                   CONDUIT     0.000     0  00:00      0.00    0.00    0.00
  26                   CONDUIT     0.000     0  00:00      0.00    0.00    0.00
  27                   CONDUIT     0.000     0  00:00      0.00    0.00    0.00
  28                   CONDUIT     0.000     0  00:00      0.00    0.00    0.00
  29                   CONDUIT     0.000     0  00:00      0.00    0.00    0.00
  30                   CONDUIT     0.000     0  00:00      0.00    0.00    0.00
  31                   CONDUIT     0.000     0  00:00      0.00    0.00    0.00
  32                   CONDUIT     0.000     0  00:00      0.00    0.00    0.00
  33                   CONDUIT     0.000     0  00:00      0.00    0.00    0.00
  34                   CONDUIT     0.000     0  00:00      0.00    0.00    0.00
  35                   CONDUIT     0.000     0  00:00      0.00    0.00    0.00
  36                   CONDUIT     0.000     0  00:00      0.00    0.00    0.00
  37                   CONDUIT     0.000     0  00:00      0.00    0.00    0.00
  
  
  *************************
  Conduit Surcharge Summary
  *************************
  
  No conduits were surcharged.
  
  
  ***************************
  Link Pollutant Load Summary
  ***************************
  
  ----------------------------------------------------------------------------
                                 TSS            TN            TP   Temperature
  Link                            kg            kg            kg            kg
  ----------------------------------------------------------------------------
  GOLAB01                      0.000         0.000         0.000         0.000
  GOLAB02                      0.000         0.000         0.000         0.000
  DARBAND01                    0.000         0.000         0.000         0.000
  DARBAND02                    0.000         0.000         0.000         0.000
  DARBAND03                    0.000         0.000         0.000         0.000
  SAADABAD01                   0.000         0.000         0.000         0.000
  SAADABAD02                   0.000         0.000         0.000         0.000
  zargandeh03                  0.000         0.000         0.000         0.000
  zargandeh04                  0.000         0.000         0.000         0.000
  zargandeh05                  0.000         0.000         0.000         0.000
  zargandeh06                  0.000         0.000         0.000         0.000
  zargandeh07                  0.000         0.000         0.000         0.000
  zargandeh08                  0.000         0.000         0.000         0.000
  zargandeh09                  0.000         0.000         0.000         0.000
  zargandeh10                  0.000         0.000         0.000         0.000
  zargandeh11                  0.000         0.000         0.000         0.000
  zargandeh12                  0.000         0.000         0.000         0.000
  zargandeh01                  0.000         0.000         0.000         0.000
  zargandeh02                  0.000         0.000         0.000         0.000
  zargandeh13                  0.000         0.000         0.000         0.000
  zargandeh14                  0.000         0.000         0.000         0.000
  zargandeh15                  0.000         0.000         0.000         0.000
  1                            0.000         0.000         0.000         0.000
  2                            0.000         0.000         0.000         0.000
  3                            0.000         0.000         0.000         0.000
  4                            0.000         0.000         0.000         0.000
  5                            0.000         0.000         0.000         0.000
  6                            0.000         0.000         0.000         0.000
  7                            0.000         0.000         0.000         0.000
  8                            0.000         0.000         0.000         0.000
  9                            0.000         0.000         0.000         0.000
  10                           0.000         0.000         0.000         0.000
  11                           0.000         0.000         0.000         0.000
  12                           0.000         0.000         0.000         0.000
  13                           0.000         0.000         0.000         0.000
  14                           0.000         0.000         0.000         0.000
  15                           0.000         0.000         0.000         0.000
  16                           0.000         0.000         0.000         0.000
  17                           0.000         0.000         0.000         0.000
  18                           0.000         0.000         0.000         0.000
  19                           0.000         0.000         0.000         0.000
  20                           0.000         0.000         0.000         0.000
  21                           0.000         0.000         0.000         0.000
  22                           0.000         0.000         0.000         0.000
  23                           0.000         0.000         0.000         0.000
  24                           0.000         0.000         0.000         0.000
  25                           0.000         0.000         0.000         0.000
  26                           0.000         0.000         0.000         0.000
  27                           0.000         0.000         0.000         0.000
  28                           0.000         0.000         0.000         0.000
  29                           0.000         0.000         0.000         0.000
  30                           0.000         0.000         0.000         0.000
  31                           0.000         0.000         0.000         0.000
  32                           0.000         0.000         0.000         0.000
  33                           0.000         0.000         0.000         0.000
  34                           0.000         0.000         0.000         0.000
  35                           0.000         0.000         0.000         0.000
  36                           0.000         0.000         0.000         0.000
  37                           0.000         0.000         0.000         0.000
  

  Analysis begun on:  Sat Nov 30 08:10:25 2019
  Analysis ended on:  Sat Nov 30 08:10:25 2019
  Total elapsed time: < 1 sec