
  EPA STORM WATER MANAGEMENT MODEL - VERSION 5.1 (Build 5.1.013)
  --------------------------------------------------------------

  WARNING 04: minimum elevation drop used for Conduit 1000075811
  WARNING 04: minimum elevation drop used for Conduit 1000076198
  WARNING 08: elevation drop exceeds length for Conduit 1000076327
  WARNING 04: minimum elevation drop used for Conduit 1000076336
  WARNING 04: minimum elevation drop used for Conduit 1000076511
  WARNING 04: minimum elevation drop used for Conduit 1000076512
  WARNING 04: minimum elevation drop used for Conduit 1000076554
  WARNING 04: minimum elevation drop used for Conduit 1000076872
  WARNING 04: minimum elevation drop used for Conduit 1000078075
  WARNING 04: minimum elevation drop used for Conduit 1000078076
  WARNING 04: minimum elevation drop used for Conduit 1000078522
  WARNING 04: minimum elevation drop used for Conduit 1000078682
  WARNING 04: minimum elevation drop used for Conduit 1000078731
  WARNING 04: minimum elevation drop used for Conduit 1000078734
  WARNING 04: minimum elevation drop used for Conduit 1000083824
  WARNING 08: elevation drop exceeds length for Conduit 1000094923
  WARNING 08: elevation drop exceeds length for Conduit 1000843615
  WARNING 08: elevation drop exceeds length for Conduit PUMPOUT-30
  WARNING 08: elevation drop exceeds length for Conduit PUMPOUT-31
  WARNING 08: elevation drop exceeds length for Conduit PUMPOUT-38
  WARNING 08: elevation drop exceeds length for Conduit PUMPOUT-39
  WARNING 02: maximum depth increased for Node 1000113447
  WARNING 02: maximum depth increased for Node 1000114744
  WARNING 02: maximum depth increased for Node NEW01236
  
  *************
  Element Count
  *************
  Number of rain gages ...... 3
  Number of subcatchments ... 0
  Number of nodes ........... 2015
  Number of links ........... 2028
  Number of pollutants ...... 0
  Number of land uses ....... 0
  
  
  ****************
  Raingage Summary
  ****************
                                                      Data       Recording
  Name                 Data Source                    Type       Interval 
  ------------------------------------------------------------------------
  KWANTLAN_DESIGN_STM  5YR_24HR                       INTENSITY   20 min.
  MUNICIPAL_DESIGN_STM MUN_5YR_24HR                   INTENSITY   20 min.
  WHITEROCK_DESIGN_STM WR_5YR_24HR                    INTENSITY   20 min.
  
  
  ************
  Node Summary
  ************
                                           Invert      Max.    Ponded    External
  Name                 Type                 Elev.     Depth      Area    Inflow  
  -------------------------------------------------------------------------------
  1000101664           JUNCTION             41.52      3.58       0.0    Yes
  1000101665           JUNCTION             33.24      1.82       0.0
  1000101666           JUNCTION             33.36      2.18       0.0
  1000101667           JUNCTION             35.54      2.79       0.0
  1000101668           JUNCTION             35.76      2.74       0.0
  1000101669           JUNCTION             36.02      3.12       0.0
  1000101672           JUNCTION             34.92      2.64       0.0
  1000101673           JUNCTION             45.84      4.35       0.0
  1000101674           JUNCTION             45.51      2.75       0.0
  1000101675           JUNCTION             40.21      2.86       0.0    Yes
  1000101676           JUNCTION             37.45      2.98       0.0
  1000101677           JUNCTION             87.08      1.60       0.0    Yes
  1000101678           JUNCTION             86.63      1.63       0.0    Yes
  1000101679           JUNCTION             84.24      2.23       0.0    Yes
  1000101680           JUNCTION             85.65      2.59       0.0    Yes
  1000101681           JUNCTION             87.03      1.75       0.0    Yes
  1000101682           JUNCTION             84.91      2.35       0.0    Yes
  1000101684           JUNCTION             78.20      2.73       0.0    Yes
  1000101685           JUNCTION             76.70      2.74       0.0    Yes
  1000101686           JUNCTION             75.02      1.35       0.0    Yes
  1000101687           JUNCTION             72.16      2.65       0.0    Yes
  1000101688           JUNCTION             71.12      2.40       0.0    Yes
  1000101689           JUNCTION             66.46      2.89       0.0    Yes
  1000101690           JUNCTION             62.57      2.38       0.0    Yes
  1000101691           JUNCTION             59.73      1.34       0.0    Yes
  1000101692           JUNCTION             33.77      2.53       0.0    Yes
  1000101693           JUNCTION             35.78      2.51       0.0
  1000101694           JUNCTION             37.72      2.45       0.0
  1000101698           JUNCTION             81.16      1.85       0.0    Yes
  1000101699           JUNCTION             77.63      1.31       0.0    Yes
  1000101700           JUNCTION             72.78      2.74       0.0
  1000101701           JUNCTION             73.25      2.42       0.0
  1000101702           JUNCTION             75.23      3.39       0.0    Yes
  1000101703           JUNCTION             78.90      3.54       0.0    Yes
  1000101704           JUNCTION             79.37      3.06       0.0    Yes
  1000101705           JUNCTION             79.85      3.14       0.0    Yes
  1000101706           JUNCTION             83.96      4.05       0.0    Yes
  1000101707           JUNCTION             83.38      2.52       0.0
  1000101708           JUNCTION             81.03      2.88       0.0    Yes
  1000101709           JUNCTION             80.42      2.68       0.0    Yes
  1000101711           JUNCTION             74.44      4.23       0.0    Yes
  1000101712           JUNCTION             70.21      2.02       0.0    Yes
  1000101713           JUNCTION             69.60      1.89       0.0    Yes
  1000101714           JUNCTION             69.17      3.47       0.0    Yes
  1000101721           JUNCTION             74.81      1.77       0.0    Yes
  1000101722           JUNCTION             78.72      2.26       0.0    Yes
  1000101727           JUNCTION             81.44      3.93       0.0    Yes
  1000101728           JUNCTION             82.88      2.75       0.0    Yes
  1000101729           JUNCTION             78.69      3.91       0.0
  1000101730           JUNCTION             78.30      3.91       0.0    Yes
  1000101731           JUNCTION             81.42      2.86       0.0    Yes
  1000101732           JUNCTION             82.26      3.65       0.0    Yes
  1000101733           JUNCTION             74.00      3.09       0.0
  1000101734           JUNCTION             76.44      3.27       0.0    Yes
  1000101735           JUNCTION             77.16      4.15       0.0
  1000101736           JUNCTION             77.88      3.97       0.0    Yes
  1000101737           JUNCTION             21.82      1.75       0.0
  1000101761           JUNCTION             35.83      2.85       0.0
  1000101762           JUNCTION             37.21      4.00       0.0
  1000101763           JUNCTION             39.72      3.87       0.0
  1000101764           JUNCTION             44.32      3.55       0.0
  1000101765           JUNCTION             47.88      3.26       0.0
  1000101766           JUNCTION             38.92      3.33       0.0    Yes
  1000101767           JUNCTION             39.95      1.81       0.0    Yes
  1000101768           JUNCTION             44.91      3.60       0.0
  1000101771           JUNCTION             76.52      1.40       0.0    Yes
  1000101772           JUNCTION             88.46      3.20       0.0    Yes
  1000101773           JUNCTION             90.02      3.12       0.0    Yes
  1000101774           JUNCTION             90.41      4.00       0.0    Yes
  1000101775           JUNCTION             90.97      2.68       0.0    Yes
  1000101776           JUNCTION             93.63      1.76       0.0
  1000101777           JUNCTION             95.57      1.91       0.0
  1000101778           JUNCTION             80.40      2.31       0.0
  1000101779           JUNCTION             83.86      2.80       0.0    Yes
  1000101780           JUNCTION             83.49      2.75       0.0
  1000101781           JUNCTION             80.86      2.14       0.0    Yes
  1000101782           JUNCTION             79.52      2.37       0.0
  1000101783           JUNCTION             76.84      2.39       0.0    Yes
  1000101784           JUNCTION             76.20      2.74       0.0    Yes
  1000101785           JUNCTION             68.52      2.31       0.0    Yes
  1000101786           JUNCTION             68.24      2.36       0.0
  1000101787           JUNCTION             84.90      2.33       0.0    Yes
  1000101788           JUNCTION             86.19      2.46       0.0    Yes
  1000101789           JUNCTION             83.60      2.12       0.0    Yes
  1000101790           JUNCTION             82.36      1.55       0.0    Yes
  1000101791           JUNCTION             75.18      1.26       0.0    Yes
  1000101792           JUNCTION             87.73      3.45       0.0    Yes
  1000101793           JUNCTION             87.77      2.00       0.0    Yes
  1000101794           JUNCTION             88.92      3.12       0.0    Yes
  1000101795           JUNCTION             91.56      2.61       0.0    Yes
  1000101796           JUNCTION             92.03      2.43       0.0    Yes
  1000101802           JUNCTION             86.39      2.76       0.0    Yes
  1000101803           JUNCTION             88.91      2.75       0.0    Yes
  1000101804           JUNCTION             93.73      2.03       0.0
  1000101805           JUNCTION             94.01      1.71       0.0    Yes
  1000101806           JUNCTION             85.10      3.05       0.0
  1000101807           JUNCTION             77.08      3.97       0.0
  1000101810           JUNCTION             65.73      2.47       0.0    Yes
  1000101812           JUNCTION             90.31      3.21       0.0
  1000101813           JUNCTION             98.79      1.94       0.0    Yes
  1000101814           JUNCTION             97.50      2.00       0.0    Yes
  1000101815           JUNCTION             95.62      3.82       0.0    Yes
  1000101816           JUNCTION             96.59      2.40       0.0    Yes
  1000101817           JUNCTION             96.87      3.33       0.0    Yes
  1000101818           JUNCTION             96.99      3.85       0.0    Yes
  1000101819           JUNCTION             97.51      3.12       0.0    Yes
  1000101820           JUNCTION             98.36      1.74       0.0    Yes
  1000101821           JUNCTION             97.47      2.23       0.0    Yes
  1000101822           JUNCTION             57.76      1.67       0.0    Yes
  1000101823           JUNCTION             96.80      1.20       0.0    Yes
  1000101824           JUNCTION             93.74      2.00       0.0    Yes
  1000101825           JUNCTION             95.93      2.91       0.0    Yes
  1000101826           JUNCTION             96.96      2.34       0.0
  1000101827           JUNCTION             96.43      1.43       0.0    Yes
  1000101828           JUNCTION             96.80      0.77       0.0    Yes
  1000101832           JUNCTION             80.10      0.93       0.0    Yes
  1000101833           JUNCTION             82.23      1.73       0.0
  1000101834           JUNCTION             85.95      3.05       0.0    Yes
  1000101835           JUNCTION             79.84      1.23       0.0    Yes
  1000101836           JUNCTION             93.97      2.78       0.0    Yes
  1000101837           JUNCTION             88.60      1.50       0.0
  1000101838           JUNCTION             96.26      1.31       0.0
  1000101839           JUNCTION             96.87      1.10       0.0    Yes
  1000101840           JUNCTION             95.56      2.33       0.0
  1000101844           JUNCTION             89.59      1.28       0.0    Yes
  1000101845           JUNCTION             90.61      2.10       0.0
  1000101846           JUNCTION             58.25      2.47       0.0    Yes
  1000101847           JUNCTION             58.84      3.91       0.0    Yes
  1000101848           JUNCTION             58.46      1.44       0.0    Yes
  1000101849           JUNCTION             58.92      1.54       0.0    Yes
  1000101850           JUNCTION             59.48      3.39       0.0    Yes
  1000101851           JUNCTION             62.26      3.15       0.0    Yes
  1000101852           JUNCTION             91.60      1.55       0.0    Yes
  1000101853           JUNCTION             83.92      3.43       0.0    Yes
  1000101854           JUNCTION             86.55      4.11       0.0    Yes
  1000101855           JUNCTION             87.46      3.63       0.0    Yes
  1000101856           JUNCTION             86.96      3.17       0.0    Yes
  1000101857           JUNCTION             88.29      3.55       0.0    Yes
  1000101858           JUNCTION             88.64      3.49       0.0    Yes
  1000101859           JUNCTION             89.76      1.95       0.0    Yes
  1000101864           JUNCTION             83.15      3.23       0.0    Yes
  1000101865           JUNCTION             85.59      3.59       0.0    Yes
  1000101866           JUNCTION             85.11      3.52       0.0    Yes
  1000101867           JUNCTION             86.16      3.37       0.0    Yes
  1000101911           JUNCTION             67.13      2.56       0.0    Yes
  1000101912           JUNCTION             83.78      3.10       0.0    Yes
  1000101913           JUNCTION             86.84      2.65       0.0    Yes
  1000101914           JUNCTION             89.14      2.70       0.0    Yes
  1000101915           JUNCTION             91.71      2.47       0.0    Yes
  1000101916           JUNCTION             93.36      2.32       0.0    Yes
  1000101917           JUNCTION             94.05      3.12       0.0    Yes
  1000101918           JUNCTION             95.26      2.00       0.0    Yes
  1000101919           JUNCTION             94.05      3.05       0.0    Yes
  1000101920           JUNCTION             94.56      2.81       0.0    Yes
  1000101921           JUNCTION             94.64      2.96       0.0    Yes
  1000101922           JUNCTION             94.85      2.26       0.0
  1000101923           JUNCTION             95.27      1.90       0.0    Yes
  1000101924           JUNCTION             87.58      2.70       0.0    Yes
  1000101925           JUNCTION             89.06      2.70       0.0    Yes
  1000101926           JUNCTION             90.44      3.10       0.0    Yes
  1000101927           JUNCTION             92.71      3.20       0.0    Yes
  1000101928           JUNCTION             93.73      2.60       0.0    Yes
  1000101929           JUNCTION             94.92      2.90       0.0    Yes
  1000101930           JUNCTION             95.75      2.60       0.0    Yes
  1000101931           JUNCTION             96.75      2.44       0.0    Yes
  1000101932           JUNCTION             93.76      2.10       0.0    Yes
  1000101933           JUNCTION             91.84      1.94       0.0    Yes
  1000101934           JUNCTION             92.17      1.84       0.0    Yes
  1000101935           JUNCTION             92.40      2.05       0.0    Yes
  1000101936           JUNCTION             93.37      2.58       0.0    Yes
  1000101937           JUNCTION             93.96      2.40       0.0    Yes
  1000101938           JUNCTION             92.30      1.47       0.0
  1000101939           JUNCTION             94.75      2.16       0.0    Yes
  1000101940           JUNCTION             95.75      2.57       0.0    Yes
  1000101941           JUNCTION             96.75      1.90       0.0    Yes
  1000101942           JUNCTION             95.54      2.10       0.0    Yes
  1000101943           JUNCTION             95.15      3.20       0.0    Yes
  1000101944           JUNCTION             97.64      2.40       0.0    Yes
  1000101945           JUNCTION             92.67      2.34       0.0    Yes
  1000101946           JUNCTION             93.71      2.76       0.0    Yes
  1000101947           JUNCTION             94.66      2.17       0.0    Yes
  1000101948           JUNCTION             95.18      2.26       0.0    Yes
  1000101949           JUNCTION             95.11      2.40       0.0    Yes
  1000101950           JUNCTION             95.41      2.50       0.0
  1000101951           JUNCTION             95.98      2.70       0.0    Yes
  1000101952           JUNCTION             96.38      1.90       0.0    Yes
  1000101953           JUNCTION             96.53      2.20       0.0    Yes
  1000101954           JUNCTION             93.88      2.30       0.0    Yes
  1000101955           JUNCTION             94.37      2.03       0.0    Yes
  1000101956           JUNCTION             94.93      1.73       0.0    Yes
  1000101957           JUNCTION             95.35      1.90       0.0    Yes
  1000101958           JUNCTION             93.22      2.41       0.0    Yes
  1000101959           JUNCTION             93.90      3.43       0.0    Yes
  1000101960           JUNCTION             95.94      2.20       0.0    Yes
  1000101961           JUNCTION             96.14      2.30       0.0    Yes
  1000101962           JUNCTION             94.36      3.98       0.0    Yes
  1000101963           JUNCTION             94.85      2.83       0.0    Yes
  1000101964           JUNCTION             95.73      2.42       0.0    Yes
  1000101965           JUNCTION             66.32      1.98       0.0    Yes
  1000101966           JUNCTION             69.38      2.00       0.0    Yes
  1000101967           JUNCTION             66.78      2.62       0.0    Yes
  1000101968           JUNCTION             65.15      2.65       0.0    Yes
  1000101969           JUNCTION             68.80      1.95       0.0    Yes
  1000101970           JUNCTION             70.32      5.13       0.0    Yes
  1000101971           JUNCTION             63.85      2.47       0.0    Yes
  1000101972           JUNCTION             67.33      2.37       0.0    Yes
  1000101973           JUNCTION             67.94      1.97       0.0    Yes
  1000101974           JUNCTION             77.81      1.74       0.0    Yes
  1000101975           JUNCTION             63.40      1.70       0.0    Yes
  1000101976           JUNCTION             63.08      3.89       0.0    Yes
  1000101977           JUNCTION             62.69      2.82       0.0    Yes
  1000101978           JUNCTION             58.04      2.22       0.0    Yes
  1000101979           JUNCTION             57.34      2.16       0.0    Yes
  1000101980           JUNCTION             59.54      2.72       0.0    Yes
  1000101981           JUNCTION             51.82      2.26       0.0    Yes
  1000101982           JUNCTION             53.22      3.02       0.0    Yes
  1000101983           JUNCTION             54.09      2.47       0.0
  1000101984           JUNCTION             59.31      3.56       0.0    Yes
  1000101985           JUNCTION             59.84      4.80       0.0
  1000101986           JUNCTION             65.65      2.95       0.0    Yes
  1000101987           JUNCTION             66.86      1.45       0.0    Yes
  1000101988           JUNCTION             95.20      2.10       0.0    Yes
  1000101989           JUNCTION             96.45      2.80       0.0    Yes
  1000101990           JUNCTION             80.11      2.40       0.0    Yes
  1000101991           JUNCTION             82.63      2.71       0.0    Yes
  1000101992           JUNCTION             83.02      1.42       0.0    Yes
  1000101993           JUNCTION             86.59      2.36       0.0    Yes
  1000101994           JUNCTION             88.71      1.53       0.0    Yes
  1000101995           JUNCTION             87.01      1.59       0.0    Yes
  1000101996           JUNCTION             88.42      2.21       0.0    Yes
  1000101997           JUNCTION             89.08      4.53       0.0    Yes
  1000101998           JUNCTION             89.50      6.31       0.0    Yes
  1000101999           JUNCTION             90.02      1.45       0.0    Yes
  1000102000           JUNCTION             91.70      3.24       0.0
  1000102001           JUNCTION             92.46      2.67       0.0
  1000102002           JUNCTION             92.40      3.83       0.0
  1000102003           JUNCTION             93.91      1.49       0.0    Yes
  1000102004           JUNCTION             89.08      2.50       0.0    Yes
  1000102005           JUNCTION             91.48      3.20       0.0    Yes
  1000102006           JUNCTION             91.21      5.70       0.0    Yes
  1000102007           JUNCTION             94.30      2.88       0.0
  1000102008           JUNCTION             93.20      2.63       0.0    Yes
  1000102009           JUNCTION             92.94      1.97       0.0    Yes
  1000102010           JUNCTION             92.77      1.84       0.0
  1000102011           JUNCTION             92.35      5.79       0.0
  1000102012           JUNCTION             92.17      6.38       0.0
  1000102013           JUNCTION             91.92      5.75       0.0
  1000102014           JUNCTION             91.64      5.66       0.0
  1000102015           JUNCTION             91.60      5.80       0.0
  1000102016           JUNCTION             97.20      1.30       0.0    Yes
  1000102017           JUNCTION             71.53      2.80       0.0
  1000102096           JUNCTION             66.32      1.99       0.0    Yes
  1000102097           JUNCTION             71.42      2.31       0.0    Yes
  1000102098           JUNCTION             73.62      2.06       0.0    Yes
  1000102272           JUNCTION             65.34      1.83       0.0    Yes
  1000102273           JUNCTION             63.41      2.65       0.0
  1000102274           JUNCTION             64.26      2.71       0.0    Yes
  1000102275           JUNCTION             64.30      2.71       0.0    Yes
  1000102276           JUNCTION             65.28      2.38       0.0
  1000102277           JUNCTION             66.02      2.30       0.0    Yes
  1000102278           JUNCTION             65.16      2.70       0.0
  1000102279           JUNCTION             67.07      2.70       0.0    Yes
  1000102280           JUNCTION             68.41      2.50       0.0    Yes
  1000102281           JUNCTION             69.62      2.44       0.0    Yes
  1000102282           JUNCTION             65.77      2.59       0.0    Yes
  1000102283           JUNCTION             66.55      2.34       0.0    Yes
  1000102284           JUNCTION             67.83      2.20       0.0    Yes
  1000102308           JUNCTION             25.26      1.57       0.0
  1000102309           JUNCTION             25.63      1.30       0.0    Yes
  1000102310           JUNCTION             27.01      1.87       0.0    Yes
  1000102311           JUNCTION             24.67      3.52       0.0    Yes
  1000102312           JUNCTION             26.38      1.95       0.0
  1000102313           JUNCTION             27.00      1.78       0.0
  1000102324           JUNCTION             31.74      2.36       0.0    Yes
  1000102325           JUNCTION             33.63      1.75       0.0
  1000102326           JUNCTION             33.50      1.14       0.0    Yes
  1000102327           JUNCTION             33.10      1.24       0.0
  1000102328           JUNCTION             33.15      1.83       0.0
  1000102329           JUNCTION             33.06      1.76       0.0
  1000102330           JUNCTION             32.64      2.24       0.0
  1000102331           JUNCTION             31.96      2.66       0.0
  1000102332           JUNCTION             31.72      2.68       0.0
  1000102333           JUNCTION             32.90      1.95       0.0
  1000102334           JUNCTION             33.18      1.64       0.0
  1000102335           JUNCTION             30.10      2.65       0.0
  1000102336           JUNCTION             28.29      2.74       0.0
  1000102337           JUNCTION             26.43      2.80       0.0
  1000102338           JUNCTION             24.78      2.61       0.0    Yes
  1000102339           JUNCTION             22.05      2.80       0.0    Yes
  1000102340           JUNCTION             21.52      3.33       0.0
  1000102413           JUNCTION             64.99      2.14       0.0
  1000102414           JUNCTION             69.30      2.30       0.0    Yes
  1000102415           JUNCTION             70.37      2.01       0.0    Yes
  1000102416           JUNCTION             19.39      4.00       0.0    Yes
  1000102417           JUNCTION             18.35      1.47       0.0
  1000102418           JUNCTION             17.46      1.43       0.0    Yes
  1000102419           JUNCTION             17.94      1.69       0.0
  1000102420           JUNCTION             31.21      2.03       0.0    Yes
  1000102421           JUNCTION             34.11      4.03       0.0    Yes
  1000102422           JUNCTION             43.03      3.00       0.0    Yes
  1000102423           JUNCTION             57.27      1.57       0.0    Yes
  1000102424           JUNCTION             54.36      2.19       0.0    Yes
  1000102425           JUNCTION             56.49      1.42       0.0    Yes
  1000102426           JUNCTION             57.35      1.91       0.0    Yes
  1000102427           JUNCTION             60.18      2.10       0.0    Yes
  1000102428           JUNCTION             58.89      2.46       0.0    Yes
  1000102429           JUNCTION             19.38      2.40       0.0
  1000102430           JUNCTION             26.43      1.76       0.0    Yes
  1000102431           JUNCTION             25.91      1.79       0.0    Yes
  1000102432           JUNCTION             23.41      3.24       0.0
  1000102433           JUNCTION             21.37      3.23       0.0    Yes
  1000102434           JUNCTION             20.61      2.04       0.0    Yes
  1000102435           JUNCTION             20.37      2.58       0.0    Yes
  1000102436           JUNCTION             20.84      2.98       0.0    Yes
  1000102437           JUNCTION             21.22      3.31       0.0    Yes
  1000102438           JUNCTION             23.51      2.02       0.0    Yes
  1000102439           JUNCTION             21.62      3.37       0.0    Yes
  1000102440           JUNCTION             22.00      2.24       0.0    Yes
  1000102441           JUNCTION             55.00      2.90       0.0    Yes
  1000102442           JUNCTION             67.68      2.54       0.0    Yes
  1000102443           JUNCTION             63.61      2.70       0.0    Yes
  1000102444           JUNCTION             66.93      2.15       0.0    Yes
  1000102445           JUNCTION             65.17      2.31       0.0    Yes
  1000102446           JUNCTION             64.70      1.83       0.0
  1000102447           JUNCTION             64.17      1.94       0.0    Yes
  1000102448           JUNCTION             65.67      2.08       0.0    Yes
  1000102449           JUNCTION             62.43      2.07       0.0    Yes
  1000102450           JUNCTION             66.76      2.68       0.0
  1000102451           JUNCTION             66.55      2.73       0.0    Yes
  1000102452           JUNCTION             65.34      2.10       0.0    Yes
  1000102453           JUNCTION             61.66      1.94       0.0    Yes
  1000102454           JUNCTION             21.16      1.64       0.0    Yes
  1000102455           JUNCTION             20.92      1.66       0.0    Yes
  1000102456           JUNCTION             20.51      2.50       0.0
  1000102457           JUNCTION             20.43      2.78       0.0    Yes
  1000102458           JUNCTION             17.54      5.20       0.0    Yes
  1000102459           JUNCTION             66.09      1.99       0.0    Yes
  1000102460           JUNCTION             70.03      1.90       0.0    Yes
  1000102461           JUNCTION             68.70      2.37       0.0
  1000102462           JUNCTION             67.87      2.66       0.0    Yes
  1000102463           JUNCTION             46.25      2.43       0.0    Yes
  1000102464           JUNCTION             56.29      1.68       0.0
  1000102465           JUNCTION             63.65      2.45       0.0
  1000102466           JUNCTION             66.03      2.26       0.0    Yes
  1000102467           JUNCTION             65.38      2.35       0.0
  1000102468           JUNCTION             65.02      2.48       0.0
  1000102469           JUNCTION             64.89      2.47       0.0
  1000102470           JUNCTION             64.61      2.22       0.0    Yes
  1000102471           JUNCTION             64.30      2.13       0.0
  1000102472           JUNCTION             45.13      2.05       0.0    Yes
  1000102473           JUNCTION             33.52      2.20       0.0    Yes
  1000102474           JUNCTION             30.68      1.58       0.0
  1000102475           JUNCTION             68.42      2.24       0.0    Yes
  1000102476           JUNCTION             68.68      2.24       0.0    Yes
  1000102477           JUNCTION             24.65      3.03       0.0    Yes
  1000102478           JUNCTION             25.23      3.18       0.0    Yes
  1000102479           JUNCTION             21.96      1.98       0.0
  1000102480           JUNCTION             27.84      2.45       0.0    Yes
  1000102481           JUNCTION             28.23      2.63       0.0    Yes
  1000102482           JUNCTION             61.68      3.35       0.0    Yes
  1000102483           JUNCTION             60.88      2.52       0.0    Yes
  1000102484           JUNCTION             21.23      1.28       0.0    Yes
  1000102485           JUNCTION             40.15      2.96       0.0
  1000102486           JUNCTION             43.90      3.99       0.0    Yes
  1000102487           JUNCTION             49.51      2.80       0.0    Yes
  1000102488           JUNCTION             49.71      3.11       0.0    Yes
  1000102489           JUNCTION             48.08      2.11       0.0    Yes
  1000102490           JUNCTION             48.68      3.46       0.0
  1000102491           JUNCTION             47.47      1.92       0.0
  1000102492           JUNCTION             46.68      3.61       0.0
  1000102493           JUNCTION             41.18      1.33       0.0
  1000102494           JUNCTION             51.21      2.28       0.0    Yes
  1000102495           JUNCTION             41.40      2.64       0.0    Yes
  1000102496           JUNCTION             38.36      3.57       0.0    Yes
  1000102497           JUNCTION             32.05      2.63       0.0
  1000102498           JUNCTION             21.32      1.65       0.0
  1000102499           JUNCTION             22.09      2.02       0.0
  1000102500           JUNCTION             22.43      1.78       0.0
  1000102501           JUNCTION             23.42      1.49       0.0    Yes
  1000102502           JUNCTION             23.91      1.53       0.0
  1000102503           JUNCTION             24.06      1.10       0.0    Yes
  1000102504           JUNCTION             24.21      1.39       0.0
  1000102505           JUNCTION             24.61      1.05       0.0
  1000102506           JUNCTION             20.83      3.17       0.0
  1000102507           JUNCTION             35.70      4.02       0.0
  1000102508           JUNCTION             43.10      3.55       0.0    Yes
  1000102511           JUNCTION             16.14      3.52       0.0
  1000102512           JUNCTION             22.10      1.89       0.0
  1000102513           JUNCTION             21.74      1.48       0.0    Yes
  1000102514           JUNCTION             23.90      1.69       0.0    Yes
  1000102515           JUNCTION             23.29      2.14       0.0
  1000102516           JUNCTION             24.14      1.39       0.0    Yes
  1000102518           JUNCTION             22.07      3.36       0.0    Yes
  1000102519           JUNCTION             29.68      2.92       0.0    Yes
  1000102520           JUNCTION             33.40      4.25       0.0    Yes
  1000102521           JUNCTION             33.68      4.10       0.0
  1000102522           JUNCTION             34.47      5.07       0.0    Yes
  1000102523           JUNCTION             35.73      3.88       0.0    Yes
  1000102524           JUNCTION             37.57      2.34       0.0    Yes
  1000102525           JUNCTION             38.15      3.90       0.0    Yes
  1000102526           JUNCTION             42.10      3.90       0.0    Yes
  1000102527           JUNCTION             47.62      3.38       0.0    Yes
  1000102528           JUNCTION             50.56      3.92       0.0    Yes
  1000102529           JUNCTION             51.04      2.52       0.0    Yes
  1000102530           JUNCTION             51.31      2.22       0.0    Yes
  1000102531           JUNCTION             52.14      4.96       0.0    Yes
  1000102532           JUNCTION             54.55      2.89       0.0
  1000102533           JUNCTION             55.38      2.53       0.0    Yes
  1000102534           JUNCTION             42.22      3.29       0.0    Yes
  1000102535           JUNCTION             51.27      2.50       0.0    Yes
  1000102536           JUNCTION             55.82      2.15       0.0    Yes
  1000102537           JUNCTION             51.67      1.40       0.0    Yes
  1000102538           JUNCTION             54.15      3.28       0.0    Yes
  1000102539           JUNCTION             42.66      2.83       0.0    Yes
  1000102540           JUNCTION             43.15      2.40       0.0    Yes
  1000102541           JUNCTION             44.22      3.91       0.0    Yes
  1000102542           JUNCTION             50.17      2.22       0.0    Yes
  1000102543           JUNCTION             53.19      1.34       0.0    Yes
  1000102544           JUNCTION             55.18      1.44       0.0    Yes
  1000102545           JUNCTION             62.88      3.00       0.0
  1000102546           JUNCTION             64.68      2.50       0.0
  1000102547           JUNCTION             65.72      2.50       0.0
  1000102548           JUNCTION             66.63      2.53       0.0
  1000102549           JUNCTION             61.58      3.84       0.0
  1000102550           JUNCTION             61.72      3.72       0.0
  1000102551           JUNCTION             61.78      3.50       0.0    Yes
  1000102552           JUNCTION             62.12      2.92       0.0    Yes
  1000102553           JUNCTION             62.50      1.47       0.0    Yes
  1000102554           JUNCTION             63.26      2.27       0.0    Yes
  1000102555           JUNCTION             64.49      2.98       0.0
  1000102556           JUNCTION             63.46      2.81       0.0
  1000102557           JUNCTION             66.95      1.62       0.0    Yes
  1000102558           JUNCTION             67.55      2.40       0.0    Yes
  1000102559           JUNCTION             66.08      2.40       0.0
  1000102560           JUNCTION             66.49      1.14       0.0    Yes
  1000102561           JUNCTION             70.65      2.10       0.0    Yes
  1000102562           JUNCTION             71.68      1.88       0.0    Yes
  1000102563           JUNCTION             66.98      1.93       0.0    Yes
  1000102564           JUNCTION             68.12      2.30       0.0    Yes
  1000102565           JUNCTION             69.00      2.18       0.0    Yes
  1000102566           JUNCTION             69.05      2.08       0.0
  1000102567           JUNCTION             70.79      2.30       0.0    Yes
  1000102568           JUNCTION             70.87      2.00       0.0    Yes
  1000102569           JUNCTION             69.29      2.07       0.0    Yes
  1000102575           JUNCTION             41.77      1.15       0.0    Yes
  1000102576           JUNCTION             28.66      1.51       0.0    Yes
  1000102577           JUNCTION             26.74      1.84       0.0    Yes
  1000102578           JUNCTION             21.57      2.83       0.0    Yes
  1000102579           JUNCTION             32.90      1.82       0.0
  1000102580           JUNCTION             34.17      2.54       0.0    Yes
  1000102581           JUNCTION             35.39      1.90       0.0    Yes
  1000102582           JUNCTION             36.87      1.73       0.0    Yes
  1000102583           JUNCTION             23.10      1.95       0.0    Yes
  1000102584           JUNCTION             23.38      1.93       0.0    Yes
  1000102585           JUNCTION             24.38      2.49       0.0    Yes
  1000102586           JUNCTION             23.26      2.93       0.0
  1000102587           JUNCTION             24.03      3.70       0.0    Yes
  1000102588           JUNCTION             25.17      1.64       0.0
  1000102589           JUNCTION             24.21      3.50       0.0
  1000102590           JUNCTION             24.58      1.69       0.0
  1000102591           JUNCTION             23.69      3.77       0.0
  1000102592           JUNCTION             69.07      2.70       0.0    Yes
  1000102593           JUNCTION             33.47      1.83       0.0    Yes
  1000102594           JUNCTION             34.73      1.65       0.0
  1000102595           JUNCTION             39.45      1.78       0.0
  1000102596           JUNCTION             43.82      1.40       0.0
  1000102597           JUNCTION             45.00      1.63       0.0
  1000102598           JUNCTION             66.19      2.83       0.0
  1000102599           JUNCTION             64.79      3.00       0.0    Yes
  1000102600           JUNCTION             61.74      4.10       0.0
  1000102601           JUNCTION             61.65      4.18       0.0    Yes
  1000102602           JUNCTION             59.67      2.64       0.0
  1000102603           JUNCTION             55.57      2.68       0.0
  1000102604           JUNCTION             50.74      3.89       0.0
  1000102605           JUNCTION             51.86      3.39       0.0
  1000102606           JUNCTION             52.45      3.66       0.0    Yes
  1000102607           JUNCTION             50.54      1.90       0.0    Yes
  1000102608           JUNCTION             50.94      2.28       0.0    Yes
  1000102609           JUNCTION             60.73      2.51       0.0    Yes
  1000102616           JUNCTION             71.54      1.76       0.0    Yes
  1000102617           JUNCTION             69.54      1.48       0.0    Yes
  1000102621           JUNCTION             66.83      3.35       0.0    Yes
  1000102628           JUNCTION             70.39      2.31       0.0    Yes
  1000102629           JUNCTION             69.68      1.52       0.0    Yes
  1000102630           JUNCTION             69.40      1.50       0.0    Yes
  1000102631           JUNCTION             69.14      2.05       0.0
  1000102632           JUNCTION             69.02      2.01       0.0
  1000102666           JUNCTION             16.06      3.90       0.0
  1000102667           JUNCTION             17.00      1.70       0.0    Yes
  1000102668           JUNCTION             18.26      2.28       0.0
  1000102669           JUNCTION             16.90      3.80       0.0    Yes
  1000102670           JUNCTION             17.34      4.90       0.0    Yes
  1000102671           JUNCTION             18.64      3.90       0.0    Yes
  1000102672           JUNCTION             19.36      2.55       0.0    Yes
  1000102673           JUNCTION             19.81      1.52       0.0    Yes
  1000102674           JUNCTION             19.92      3.95       0.0    Yes
  1000102675           JUNCTION             21.12      5.08       0.0    Yes
  1000102676           JUNCTION             22.10      5.87       0.0    Yes
  1000102677           JUNCTION             22.84      4.21       0.0
  1000102678           JUNCTION             23.15      2.89       0.0    Yes
  1000102679           JUNCTION             25.15      3.17       0.0    Yes
  1000102680           JUNCTION             26.46      4.76       0.0
  1000102681           JUNCTION             27.58      3.63       0.0
  1000102682           JUNCTION             28.91      3.69       0.0    Yes
  1000102683           JUNCTION             30.48      4.62       0.0    Yes
  1000102684           JUNCTION             31.96      2.27       0.0
  1000102685           JUNCTION             36.59      2.48       0.0    Yes
  1000102686           JUNCTION             41.29      3.41       0.0    Yes
  1000102687           JUNCTION             46.86      2.77       0.0    Yes
  1000102688           JUNCTION             47.35      1.82       0.0
  1000102689           JUNCTION             32.72      2.36       0.0    Yes
  1000102690           JUNCTION             32.90      1.65       0.0
  1000102691           JUNCTION             23.13      3.29       0.0
  1000102692           JUNCTION             25.41      2.32       0.0    Yes
  1000102693           JUNCTION             27.12      2.19       0.0    Yes
  1000102694           JUNCTION             23.67      3.46       0.0    Yes
  1000102695           JUNCTION             23.95      2.43       0.0    Yes
  1000102696           JUNCTION             24.27      2.10       0.0    Yes
  1000102697           JUNCTION             25.02      2.54       0.0    Yes
  1000102698           JUNCTION             28.10      2.51       0.0    Yes
  1000102699           JUNCTION             27.15      1.67       0.0    Yes
  1000102700           JUNCTION             29.70      2.20       0.0    Yes
  1000102701           JUNCTION             32.67      4.08       0.0    Yes
  1000102702           JUNCTION             35.51      3.15       0.0    Yes
  1000102703           JUNCTION             39.25      2.87       0.0    Yes
  1000102704           JUNCTION             42.54      2.73       0.0
  1000102705           JUNCTION             44.93      2.99       0.0    Yes
  1000102706           JUNCTION             48.67      3.23       0.0    Yes
  1000102707           JUNCTION             51.97      1.78       0.0    Yes
  1000102708           JUNCTION             48.98      3.11       0.0    Yes
  1000102709           JUNCTION             53.95      2.67       0.0    Yes
  1000102710           JUNCTION             26.73      4.82       0.0
  1000102711           JUNCTION             31.12      2.80       0.0    Yes
  1000102712           JUNCTION             25.26      2.75       0.0
  1000102713           JUNCTION             31.98      2.31       0.0    Yes
  1000102714           JUNCTION             28.34      1.38       0.0    Yes
  1000102715           JUNCTION             65.53      3.22       0.0    Yes
  1000102716           JUNCTION             66.64      3.24       0.0
  1000102717           JUNCTION             69.15      2.29       0.0
  1000102718           JUNCTION             68.98      2.11       0.0    Yes
  1000102719           JUNCTION             65.49      4.01       0.0
  1000102720           JUNCTION             68.24      1.53       0.0    Yes
  1000102721           JUNCTION             67.83      2.18       0.0
  1000102722           JUNCTION             66.67      3.28       0.0    Yes
  1000102725           JUNCTION             68.79      3.01       0.0    Yes
  1000102726           JUNCTION             68.23      2.68       0.0    Yes
  1000102727           JUNCTION             67.83      2.64       0.0    Yes
  1000102728           JUNCTION             68.44      2.26       0.0    Yes
  1000102729           JUNCTION             67.51      2.43       0.0    Yes
  1000102730           JUNCTION             68.56      2.77       0.0    Yes
  1000102787           JUNCTION             70.94      2.10       0.0    Yes
  1000102788           JUNCTION             70.44      2.13       0.0    Yes
  1000102789           JUNCTION             70.10      2.44       0.0    Yes
  1000102790           JUNCTION             69.47      3.00       0.0    Yes
  1000102791           JUNCTION             68.97      2.41       0.0
  1000102792           JUNCTION             68.81      2.82       0.0    Yes
  1000102793           JUNCTION             70.16      2.70       0.0    Yes
  1000102794           JUNCTION             70.56      3.00       0.0    Yes
  1000102918           JUNCTION             65.85      3.15       0.0    Yes
  1000102920           JUNCTION             64.82      3.90       0.0    Yes
  1000102921           JUNCTION             64.85      3.92       0.0
  1000102922           JUNCTION             65.04      3.97       0.0
  1000102923           JUNCTION             65.15      3.85       0.0    Yes
  1000102924           JUNCTION             65.20      3.58       0.0    Yes
  1000103162           JUNCTION             25.23      3.87       0.0
  1000103163           JUNCTION             24.77      3.88       0.0
  1000103164           JUNCTION             22.25      3.88       0.0
  1000103165           JUNCTION             27.60      3.63       0.0
  1000103166           JUNCTION             31.30      3.78       0.0
  1000103167           JUNCTION             31.86      4.04       0.0
  1000103168           JUNCTION             21.88      4.12       0.0    Yes
  1000103169           JUNCTION             20.25      3.92       0.0
  1000103170           JUNCTION             36.06      3.50       0.0
  1000103171           JUNCTION             20.08      3.01       0.0
  1000103172           JUNCTION             18.02      3.24       0.0
  1000103173           JUNCTION             46.08      3.89       0.0
  1000103174           JUNCTION             37.88      4.13       0.0
  1000103175           JUNCTION             36.30      3.96       0.0
  1000103176           JUNCTION             35.94      4.30       0.0    Yes
  1000103177           JUNCTION             39.26      3.98       0.0
  1000103178           JUNCTION             41.77      3.92       0.0
  1000103179           JUNCTION             34.57      3.03       0.0    Yes
  1000103180           JUNCTION             64.48      2.28       0.0    Yes
  1000103181           JUNCTION             65.00      0.99       0.0
  1000103335           JUNCTION             84.90      1.10       0.0    Yes
  1000103336           JUNCTION             86.05      0.62       0.0    Yes
  1000103337           JUNCTION             74.02      1.87       0.0    Yes
  1000103338           JUNCTION             75.71      1.99       0.0    Yes
  1000103339           JUNCTION             72.82      2.45       0.0    Yes
  1000103340           JUNCTION             75.53      2.08       0.0    Yes
  1000103341           JUNCTION             58.62      2.21       0.0
  1000103342           JUNCTION             61.02      2.37       0.0
  1000103343           JUNCTION             63.60      3.02       0.0
  1000103344           JUNCTION             89.10      2.47       0.0    Yes
  1000103345           JUNCTION             89.55      2.85       0.0    Yes
  1000103346           JUNCTION             89.80      2.97       0.0    Yes
  1000103347           JUNCTION             90.09      2.84       0.0    Yes
  1000103348           JUNCTION             90.12      3.10       0.0    Yes
  1000103349           JUNCTION             90.58      1.70       0.0    Yes
  1000103350           JUNCTION             64.46      3.14       0.0
  1000103351           JUNCTION             67.68      2.70       0.0    Yes
  1000103352           JUNCTION             94.53      3.56       0.0
  1000103353           JUNCTION             92.54      2.11       0.0    Yes
  1000103354           JUNCTION             92.14      2.61       0.0    Yes
  1000103355           JUNCTION             73.62      1.95       0.0    Yes
  1000103356           JUNCTION             58.47      1.76       0.0    Yes
  1000103357           JUNCTION             53.79      2.05       0.0    Yes
  1000103358           JUNCTION             53.11      2.12       0.0    Yes
  1000103359           JUNCTION             48.69      2.65       0.0    Yes
  1000103360           JUNCTION             79.64      1.36       0.0    Yes
  1000103694           JUNCTION             41.33      4.00       0.0
  1000103695           JUNCTION             40.33      4.76       0.0    Yes
  1000103696           JUNCTION             35.93      4.06       0.0
  1000103697           JUNCTION             34.58      3.65       0.0
  1000103698           JUNCTION             34.22      3.80       0.0
  1000103699           JUNCTION             33.05      3.92       0.0
  1000103700           JUNCTION             36.36      3.09       0.0    Yes
  1000103701           JUNCTION             40.16      3.53       0.0
  1000103704           JUNCTION              3.40      3.45       0.0    Yes
  1000103705           JUNCTION              3.84      3.30       0.0
  1000103706           JUNCTION              9.35      4.24       0.0
  1000103707           JUNCTION             13.43      2.83       0.0
  1000103708           JUNCTION             14.88      3.67       0.0
  1000103754           JUNCTION              5.83      3.28       0.0
  1000103755           JUNCTION              5.53      2.41       0.0
  1000103805           JUNCTION             25.54      4.63       0.0
  1000103806           JUNCTION             38.97      3.43       0.0
  1000103817           JUNCTION             23.30      3.24       0.0
  1000103818           JUNCTION             30.28      3.22       0.0
  1000103819           JUNCTION             31.35      3.03       0.0
  1000103820           JUNCTION             31.94      4.06       0.0
  1000103821           JUNCTION             30.67      3.61       0.0
  1000103830           JUNCTION             45.15      3.93       0.0
  1000103831           JUNCTION             42.51      3.28       0.0
  1000103832           JUNCTION             39.63      4.74       0.0
  1000103833           JUNCTION             36.19      3.35       0.0
  1000103834           JUNCTION             30.38      3.01       0.0
  1000103835           JUNCTION             40.18      4.12       0.0    Yes
  1000103836           JUNCTION              9.81      3.67       0.0
  1000103837           JUNCTION             10.41      2.74       0.0
  1000103838           JUNCTION             10.35      3.15       0.0
  1000103839           JUNCTION              8.88      2.57       0.0
  1000103841           JUNCTION              8.53      2.27       0.0    Yes
  1000103842           JUNCTION              7.90      4.40       0.0
  1000103861           JUNCTION             38.41      2.71       0.0    Yes
  1000103982           JUNCTION              8.90      2.73       0.0
  1000103983           JUNCTION             12.69      2.90       0.0
  1000103984           JUNCTION             15.12      6.29       0.0
  1000103985           JUNCTION             19.01      3.59       0.0
  1000103986           JUNCTION             19.84      4.13       0.0
  1000103997           JUNCTION              7.04      2.08       0.0
  1000103998           JUNCTION             26.07      3.14       0.0    Yes
  1000103999           JUNCTION             26.40      4.28       0.0
  1000104000           JUNCTION             10.41      3.35       0.0
  1000104001           JUNCTION             10.82      4.63       0.0
  1000104016           JUNCTION              3.98      3.34       0.0
  1000104220           JUNCTION             85.27      2.14       0.0    Yes
  1000104221           JUNCTION             85.02      1.69       0.0    Yes
  1000104222           JUNCTION             84.67      2.85       0.0    Yes
  1000104223           JUNCTION             86.22      1.16       0.0    Yes
  1000104224           JUNCTION             78.88      2.27       0.0    Yes
  1000104225           JUNCTION             93.62      3.97       0.0    Yes
  1000104226           JUNCTION             94.12      2.59       0.0    Yes
  1000104227           JUNCTION             94.37      2.02       0.0    Yes
  1000104228           JUNCTION             94.98      1.48       0.0    Yes
  1000104229           JUNCTION             94.98      1.72       0.0    Yes
  1000104230           JUNCTION             76.84      3.84       0.0    Yes
  1000104231           JUNCTION             77.10      3.70       0.0    Yes
  1000104232           JUNCTION             78.33      2.32       0.0    Yes
  1000104233           JUNCTION             78.62      2.65       0.0    Yes
  1000104234           JUNCTION             79.67      3.67       0.0    Yes
  1000104235           JUNCTION             79.84      1.46       0.0    Yes
  1000104236           JUNCTION             80.05      1.35       0.0    Yes
  1000104237           JUNCTION             79.57      1.44       0.0    Yes
  1000104238           JUNCTION             79.23      1.85       0.0    Yes
  1000104239           JUNCTION             78.95      2.03       0.0    Yes
  1000104240           JUNCTION             79.79      1.43       0.0    Yes
  1000104241           JUNCTION             85.78      1.31       0.0    Yes
  1000104242           JUNCTION             85.55      1.45       0.0    Yes
  1000104243           JUNCTION             92.84      1.98       0.0    Yes
  1000104244           JUNCTION             93.48      2.56       0.0    Yes
  1000104245           JUNCTION             87.58      2.11       0.0    Yes
  1000104246           JUNCTION             88.33      2.58       0.0    Yes
  1000104247           JUNCTION             79.64      2.61       0.0
  1000104248           JUNCTION             76.44      2.39       0.0
  1000104249           JUNCTION             75.59      2.94       0.0    Yes
  1000104250           JUNCTION             71.42      2.80       0.0    Yes
  1000104251           JUNCTION             74.56      1.88       0.0    Yes
  1000104252           JUNCTION             70.77      1.76       0.0    Yes
  1000104253           JUNCTION             68.70      1.78       0.0    Yes
  1000104254           JUNCTION             85.24      1.16       0.0    Yes
  1000104255           JUNCTION             82.73      2.53       0.0
  1000104256           JUNCTION             79.56      2.96       0.0    Yes
  1000104257           JUNCTION             79.80      3.27       0.0    Yes
  1000104258           JUNCTION             74.79      4.29       0.0    Yes
  1000104259           JUNCTION             74.33      2.40       0.0
  1000104260           JUNCTION             74.07      2.04       0.0    Yes
  1000104261           JUNCTION             76.15      3.56       0.0    Yes
  1000104262           JUNCTION             76.66      4.13       0.0
  1000104263           JUNCTION             78.98      1.95       0.0    Yes
  1000104264           JUNCTION             79.40      1.53       0.0    Yes
  1000104265           JUNCTION             89.15      3.08       0.0    Yes
  1000104266           JUNCTION             75.91      3.84       0.0    Yes
  1000104267           JUNCTION             78.07      4.24       0.0    Yes
  1000104268           JUNCTION             79.23      3.68       0.0    Yes
  1000104300           JUNCTION             73.30      1.95       0.0    Yes
  1000104301           JUNCTION             74.96      2.47       0.0    Yes
  1000104302           JUNCTION             67.89      2.12       0.0    Yes
  1000104303           JUNCTION             65.22      3.20       0.0    Yes
  1000104304           JUNCTION             68.17      2.37       0.0    Yes
  1000104305           JUNCTION             70.58      2.01       0.0    Yes
  1000104306           JUNCTION             69.03      2.00       0.0    Yes
  1000104307           JUNCTION             71.69      1.78       0.0    Yes
  1000104308           JUNCTION             65.16      2.69       0.0    Yes
  1000104309           JUNCTION             64.93      2.48       0.0    Yes
  1000104310           JUNCTION             64.57      2.20       0.0    Yes
  1000104312           JUNCTION             63.26      2.40       0.0    Yes
  1000104313           JUNCTION             61.02      2.26       0.0    Yes
  1000104314           JUNCTION             57.49      3.00       0.0    Yes
  1000104315           JUNCTION             55.99      2.08       0.0    Yes
  1000104316           JUNCTION             53.08      2.60       0.0    Yes
  1000104317           JUNCTION             56.85      2.59       0.0    Yes
  1000104318           JUNCTION             58.42      2.94       0.0    Yes
  1000104319           JUNCTION             60.69      3.40       0.0    Yes
  1000104320           JUNCTION             58.29      2.10       0.0    Yes
  1000104321           JUNCTION             51.56      2.40       0.0
  1000104322           JUNCTION             55.00      2.50       0.0    Yes
  1000104323           JUNCTION             58.49      2.23       0.0    Yes
  1000104324           JUNCTION             62.46      2.12       0.0    Yes
  1000104325           JUNCTION             62.99      2.65       0.0    Yes
  1000104326           JUNCTION             64.64      1.40       0.0    Yes
  1000104327           JUNCTION             60.50      1.95       0.0    Yes
  1000104328           JUNCTION             66.37      1.97       0.0    Yes
  1000104329           JUNCTION             66.02      2.06       0.0    Yes
  1000104330           JUNCTION             65.35      2.10       0.0
  1000104331           JUNCTION             65.05      2.15       0.0    Yes
  1000104332           JUNCTION             63.57      2.37       0.0    Yes
  1000104333           JUNCTION             62.00      2.30       0.0    Yes
  1000104334           JUNCTION             59.95      2.70       0.0    Yes
  1000104335           JUNCTION             60.26      1.68       0.0    Yes
  1000104336           JUNCTION             57.02      2.50       0.0    Yes
  1000104337           JUNCTION             65.40      0.90       0.0    Yes
  1000104338           JUNCTION             64.21      1.57       0.0    Yes
  1000104339           JUNCTION             55.49      2.10       0.0
  1000104340           JUNCTION             56.43      2.90       0.0    Yes
  1000104341           JUNCTION             58.65      1.70       0.0    Yes
  1000104342           JUNCTION             56.93      2.61       0.0    Yes
  1000104343           JUNCTION             55.61      1.31       0.0    Yes
  1000104344           JUNCTION             65.84      2.61       0.0    Yes
  1000104345           JUNCTION             61.32      3.32       0.0    Yes
  1000104346           JUNCTION             58.13      2.68       0.0    Yes
  1000104347           JUNCTION             49.44      2.41       0.0    Yes
  1000104348           JUNCTION             49.47      2.17       0.0    Yes
  1000104349           JUNCTION             50.31      1.65       0.0
  1000104350           JUNCTION             51.28      2.04       0.0
  1000104351           JUNCTION             48.32      3.00       0.0
  1000104352           JUNCTION             48.08      3.40       0.0    Yes
  1000104353           JUNCTION             52.00      2.66       0.0
  1000104354           JUNCTION             48.98      2.50       0.0
  1000104355           JUNCTION             52.39      2.64       0.0    Yes
  1000104356           JUNCTION             52.83      2.62       0.0    Yes
  1000104357           JUNCTION             57.99      2.53       0.0    Yes
  1000104358           JUNCTION             61.25      3.05       0.0    Yes
  1000104359           JUNCTION             62.54      2.61       0.0    Yes
  1000104360           JUNCTION             62.91      2.55       0.0    Yes
  1000104361           JUNCTION             63.07      2.00       0.0    Yes
  1000104362           JUNCTION             58.69      2.10       0.0    Yes
  1000104363           JUNCTION             49.99      1.70       0.0
  1000104364           JUNCTION             62.92      2.34       0.0    Yes
  1000104365           JUNCTION             58.41      2.80       0.0
  1000104366           JUNCTION             58.60      2.70       0.0
  1000104367           JUNCTION             58.94      1.80       0.0    Yes
  1000104368           JUNCTION             59.36      2.20       0.0    Yes
  1000104369           JUNCTION             62.57      1.54       0.0    Yes
  1000104370           JUNCTION             62.77      1.80       0.0    Yes
  1000104371           JUNCTION             64.33      3.16       0.0    Yes
  1000104372           JUNCTION             64.79      3.74       0.0    Yes
  1000104373           JUNCTION             75.34      2.50       0.0    Yes
  1000104374           JUNCTION             73.02      2.27       0.0    Yes
  1000104375           JUNCTION             68.48      2.17       0.0    Yes
  1000104376           JUNCTION             63.71      2.84       0.0
  1000104377           JUNCTION             66.48      1.91       0.0    Yes
  1000104378           JUNCTION             67.78      1.90       0.0    Yes
  1000104379           JUNCTION             70.52      2.28       0.0    Yes
  1000104380           JUNCTION             71.91      3.47       0.0    Yes
  1000104381           JUNCTION             74.22      2.35       0.0    Yes
  1000104382           JUNCTION             76.58      2.20       0.0    Yes
  1000104383           JUNCTION             75.16      1.83       0.0    Yes
  1000104384           JUNCTION             76.21      2.27       0.0    Yes
  1000104385           JUNCTION             79.84      2.52       0.0    Yes
  1000104386           JUNCTION             80.27      1.47       0.0    Yes
  1000104387           JUNCTION             77.73      1.26       0.0    Yes
  1000104388           JUNCTION             78.96      2.45       0.0    Yes
  1000104389           JUNCTION             72.16      2.10       0.0    Yes
  1000104390           JUNCTION             69.86      1.39       0.0    Yes
  1000104391           JUNCTION             68.12      2.40       0.0    Yes
  1000104392           JUNCTION             69.64      2.30       0.0    Yes
  1000104393           JUNCTION             69.05      2.41       0.0
  1000104394           JUNCTION             64.39      2.65       0.0    Yes
  1000104395           JUNCTION             74.00      2.40       0.0    Yes
  1000104396           JUNCTION             63.86      2.61       0.0
  1000104397           JUNCTION             64.27      2.06       0.0    Yes
  1000104398           JUNCTION             64.85      1.86       0.0    Yes
  1000104399           JUNCTION             67.95      2.70       0.0    Yes
  1000104400           JUNCTION             69.04      2.33       0.0    Yes
  1000104401           JUNCTION             70.96      1.70       0.0    Yes
  1000104402           JUNCTION             66.17      1.53       0.0    Yes
  1000104403           JUNCTION             86.92      2.11       0.0    Yes
  1000104404           JUNCTION             88.10      1.97       0.0    Yes
  1000104405           JUNCTION             85.52      1.63       0.0    Yes
  1000104406           JUNCTION             87.16      2.59       0.0    Yes
  1000104407           JUNCTION             87.22      2.25       0.0    Yes
  1000104408           JUNCTION             86.92      1.84       0.0    Yes
  1000104409           JUNCTION             86.45      1.95       0.0    Yes
  1000104410           JUNCTION             86.07      1.50       0.0    Yes
  1000104411           JUNCTION             87.18      2.24       0.0    Yes
  1000104412           JUNCTION             88.48      2.49       0.0    Yes
  1000104413           JUNCTION             90.76      1.93       0.0    Yes
  1000104414           JUNCTION             90.92      2.16       0.0
  1000104415           JUNCTION             91.53      1.70       0.0    Yes
  1000104416           JUNCTION             92.40      2.80       0.0    Yes
  1000104417           JUNCTION             92.90      3.45       0.0    Yes
  1000104418           JUNCTION             93.36      2.70       0.0    Yes
  1000104419           JUNCTION             93.85      1.70       0.0    Yes
  1000104420           JUNCTION             95.00      1.70       0.0    Yes
  1000104421           JUNCTION             91.13      1.58       0.0    Yes
  1000104422           JUNCTION             90.30      1.62       0.0    Yes
  1000104423           JUNCTION             96.00      2.80       0.0    Yes
  1000104424           JUNCTION             95.11      2.83       0.0    Yes
  1000104425           JUNCTION             94.73      1.87       0.0    Yes
  1000104426           JUNCTION             94.48      3.40       0.0    Yes
  1000104427           JUNCTION             96.75      0.60       0.0    Yes
  1000104428           JUNCTION             92.65      1.99       0.0    Yes
  1000104429           JUNCTION             90.57      2.70       0.0    Yes
  1000104430           JUNCTION             89.91      3.02       0.0    Yes
  1000104431           JUNCTION             88.37      2.70       0.0    Yes
  1000104432           JUNCTION             85.81      2.58       0.0    Yes
  1000104433           JUNCTION             82.24      3.17       0.0    Yes
  1000104434           JUNCTION             79.65      2.77       0.0    Yes
  1000104435           JUNCTION             77.85      2.90       0.0    Yes
  1000104436           JUNCTION             80.70      1.56       0.0    Yes
  1000104437           JUNCTION             83.45      2.90       0.0    Yes
  1000104438           JUNCTION             84.88      2.76       0.0    Yes
  1000104439           JUNCTION             81.41      2.60       0.0    Yes
  1000104440           JUNCTION             82.75      1.91       0.0    Yes
  1000104441           JUNCTION             82.04      2.51       0.0    Yes
  1000104442           JUNCTION             86.38      2.44       0.0    Yes
  1000104443           JUNCTION             85.75      2.44       0.0    Yes
  1000104444           JUNCTION             86.96      1.60       0.0    Yes
  1000104445           JUNCTION             84.14      1.45       0.0    Yes
  1000104446           JUNCTION             83.25      1.91       0.0    Yes
  1000104447           JUNCTION             81.78      2.29       0.0    Yes
  1000104448           JUNCTION             75.68      4.02       0.0    Yes
  1000104449           JUNCTION             79.50      2.10       0.0    Yes
  1000104450           JUNCTION             82.62      3.39       0.0    Yes
  1000104451           JUNCTION             82.84      2.19       0.0    Yes
  1000104452           JUNCTION             84.10      2.31       0.0    Yes
  1000104453           JUNCTION             84.51      2.32       0.0    Yes
  1000104454           JUNCTION             84.97      2.47       0.0    Yes
  1000104455           JUNCTION             85.58      1.20       0.0    Yes
  1000104456           JUNCTION             84.59      2.40       0.0    Yes
  1000104457           JUNCTION             83.65      1.39       0.0    Yes
  1000104458           JUNCTION             83.30      1.10       0.0    Yes
  1000104459           JUNCTION             81.27      1.80       0.0    Yes
  1000104460           JUNCTION             78.84      2.50       0.0    Yes
  1000104461           JUNCTION             77.58      3.40       0.0    Yes
  1000104462           JUNCTION             80.55      2.43       0.0    Yes
  1000104463           JUNCTION             74.32      4.10       0.0
  1000104464           JUNCTION             74.94      3.80       0.0    Yes
  1000104465           JUNCTION             81.66      1.67       0.0    Yes
  1000104466           JUNCTION             81.37      1.10       0.0    Yes
  1000104467           JUNCTION             81.14      2.21       0.0    Yes
  1000104468           JUNCTION             81.09      2.40       0.0    Yes
  1000104469           JUNCTION             81.51      2.75       0.0    Yes
  1000104470           JUNCTION             82.27      1.80       0.0    Yes
  1000104471           JUNCTION             81.98      2.86       0.0    Yes
  1000104472           JUNCTION             74.05      4.80       0.0
  1000104473           JUNCTION             73.92      5.00       0.0    Yes
  1000104474           JUNCTION             78.67      2.47       0.0    Yes
  1000104475           JUNCTION             79.49      3.60       0.0    Yes
  1000104476           JUNCTION             80.90      3.06       0.0    Yes
  1000104477           JUNCTION             81.08      3.53       0.0    Yes
  1000104478           JUNCTION             81.41      3.15       0.0    Yes
  1000104480           JUNCTION             81.19      4.06       0.0    Yes
  1000104481           JUNCTION             81.41      3.35       0.0    Yes
  1000104482           JUNCTION             87.48      1.25       0.0    Yes
  1000104483           JUNCTION             88.30      1.40       0.0    Yes
  1000104484           JUNCTION             87.88      2.10       0.0    Yes
  1000104485           JUNCTION             85.29      2.69       0.0    Yes
  1000104486           JUNCTION             84.59      1.74       0.0    Yes
  1000104487           JUNCTION             84.99      1.73       0.0    Yes
  1000104488           JUNCTION             85.95      1.67       0.0    Yes
  1000104489           JUNCTION             74.70      1.51       0.0    Yes
  1000104490           JUNCTION             74.13      2.40       0.0    Yes
  1000104491           JUNCTION             72.33      3.36       0.0    Yes
  1000104492           JUNCTION             75.08      2.30       0.0    Yes
  1000104493           JUNCTION             71.13      1.90       0.0    Yes
  1000104494           JUNCTION             69.66      2.36       0.0    Yes
  1000104495           JUNCTION             67.43      2.00       0.0    Yes
  1000104496           JUNCTION             66.55      2.30       0.0    Yes
  1000104497           JUNCTION             65.64      2.70       0.0    Yes
  1000104498           JUNCTION             64.28      2.72       0.0    Yes
  1000104499           JUNCTION             66.33      2.40       0.0    Yes
  1000104500           JUNCTION             68.52      3.50       0.0    Yes
  1000104501           JUNCTION             70.36      3.80       0.0    Yes
  1000104502           JUNCTION             73.60      1.87       0.0    Yes
  1000104503           JUNCTION             72.74      2.40       0.0    Yes
  1000104504           JUNCTION             72.56      1.80       0.0
  1000104505           JUNCTION             73.36      2.24       0.0
  1000104506           JUNCTION             75.04      3.00       0.0    Yes
  1000104507           JUNCTION             76.84      1.75       0.0    Yes
  1000104508           JUNCTION             75.82      2.17       0.0    Yes
  1000104509           JUNCTION             76.33      2.19       0.0    Yes
  1000104510           JUNCTION             75.30      2.60       0.0    Yes
  1000104511           JUNCTION             75.95      2.28       0.0    Yes
  1000104512           JUNCTION             75.71      3.77       0.0    Yes
  1000104513           JUNCTION             76.30      3.46       0.0    Yes
  1000104514           JUNCTION             76.91      3.42       0.0    Yes
  1000104515           JUNCTION             77.70      2.89       0.0    Yes
  1000104516           JUNCTION             78.32      2.36       0.0    Yes
  1000104517           JUNCTION             79.40      2.55       0.0    Yes
  1000104518           JUNCTION             77.37      2.50       0.0    Yes
  1000104519           JUNCTION             78.37      1.50       0.0    Yes
  1000104520           JUNCTION             79.77      2.37       0.0    Yes
  1000104521           JUNCTION             77.49      4.00       0.0    Yes
  1000104522           JUNCTION             78.67      2.65       0.0    Yes
  1000104523           JUNCTION             79.20      4.10       0.0    Yes
  1000104524           JUNCTION             81.06      3.32       0.0    Yes
  1000104525           JUNCTION             81.30      2.57       0.0    Yes
  1000104526           JUNCTION             80.22      2.70       0.0    Yes
  1000104527           JUNCTION             80.64      2.50       0.0    Yes
  1000104528           JUNCTION             81.73      2.05       0.0    Yes
  1000104529           JUNCTION             82.37      2.13       0.0    Yes
  1000104530           JUNCTION             83.04      3.13       0.0    Yes
  1000104531           JUNCTION             82.94      1.48       0.0    Yes
  1000104532           JUNCTION             80.84      1.69       0.0    Yes
  1000104533           JUNCTION             80.57      1.68       0.0
  1000104534           JUNCTION             83.43      2.00       0.0    Yes
  1000104535           JUNCTION             83.03      2.30       0.0    Yes
  1000104536           JUNCTION             82.53      2.70       0.0    Yes
  1000104537           JUNCTION             82.01      3.18       0.0    Yes
  1000104538           JUNCTION             81.07      4.50       0.0    Yes
  1000104539           JUNCTION             80.24      3.93       0.0    Yes
  1000104540           JUNCTION             79.82      3.29       0.0    Yes
  1000104541           JUNCTION             81.93      4.20       0.0    Yes
  1000104542           JUNCTION             84.71      2.79       0.0    Yes
  1000104543           JUNCTION             82.65      2.87       0.0    Yes
  1000104544           JUNCTION             84.25      2.06       0.0    Yes
  1000104545           JUNCTION             83.76      1.95       0.0    Yes
  1000104546           JUNCTION             80.91      3.30       0.0    Yes
  1000104547           JUNCTION             81.16      2.71       0.0    Yes
  1000104548           JUNCTION             81.48      2.47       0.0    Yes
  1000104549           JUNCTION             82.40      2.02       0.0    Yes
  1000104550           JUNCTION             83.21      3.22       0.0    Yes
  1000104551           JUNCTION             84.57      2.50       0.0    Yes
  1000104552           JUNCTION             84.06      3.01       0.0    Yes
  1000104553           JUNCTION             85.09      1.56       0.0    Yes
  1000104554           JUNCTION             85.05      1.64       0.0    Yes
  1000104555           JUNCTION             85.43      1.12       0.0    Yes
  1000104556           JUNCTION             84.36      2.40       0.0
  1000104557           JUNCTION             85.45      1.59       0.0    Yes
  1000104558           JUNCTION             85.24      2.00       0.0    Yes
  1000104559           JUNCTION             85.08      1.75       0.0    Yes
  1000104560           JUNCTION             85.45      1.23       0.0    Yes
  1000104561           JUNCTION             84.20      2.70       0.0    Yes
  1000104562           JUNCTION             83.74      2.10       0.0    Yes
  1000104563           JUNCTION             83.25      2.44       0.0    Yes
  1000104564           JUNCTION             82.68      2.30       0.0    Yes
  1000104565           JUNCTION             82.97      3.20       0.0    Yes
  1000104566           JUNCTION             83.62      4.10       0.0    Yes
  1000104567           JUNCTION             84.38      1.69       0.0    Yes
  1000104568           JUNCTION             84.62      1.81       0.0    Yes
  1000104569           JUNCTION             84.34      1.88       0.0    Yes
  1000104570           JUNCTION             82.09      2.16       0.0    Yes
  1000104571           JUNCTION             82.76      2.03       0.0
  1000104690           JUNCTION             81.15      3.07       0.0    Yes
  1000104691           JUNCTION             80.60      3.40       0.0    Yes
  1000104692           JUNCTION             80.13      3.32       0.0    Yes
  1000104693           JUNCTION             79.82      2.60       0.0    Yes
  1000104694           JUNCTION             80.02      1.62       0.0
  1000104695           JUNCTION             81.49      1.98       0.0    Yes
  1000104696           JUNCTION             81.93      2.20       0.0    Yes
  1000104697           JUNCTION             81.71      1.78       0.0    Yes
  1000104698           JUNCTION             79.45      2.30       0.0    Yes
  1000104699           JUNCTION             82.01      2.27       0.0    Yes
  1000104700           JUNCTION             83.32      1.80       0.0    Yes
  1000104701           JUNCTION             82.91      1.80       0.0    Yes
  1000104702           JUNCTION             82.44      1.93       0.0    Yes
  1000104703           JUNCTION             82.12      1.90       0.0    Yes
  1000104704           JUNCTION             79.32      1.89       0.0
  1000104705           JUNCTION             79.17      1.80       0.0    Yes
  1000104706           JUNCTION             79.54      2.13       0.0    Yes
  1000104707           JUNCTION             79.77      1.51       0.0    Yes
  1000104708           JUNCTION             80.49      1.78       0.0    Yes
  1000104709           JUNCTION             80.29      2.50       0.0    Yes
  1000104710           JUNCTION             85.55      2.38       0.0    Yes
  1000104711           JUNCTION             85.02      2.60       0.0    Yes
  1000104712           JUNCTION             85.99      2.21       0.0    Yes
  1000104713           JUNCTION             86.31      2.89       0.0    Yes
  1000104714           JUNCTION             87.14      2.34       0.0    Yes
  1000104715           JUNCTION             86.77      2.87       0.0    Yes
  1000104716           JUNCTION             86.37      1.75       0.0    Yes
  1000104717           JUNCTION             85.69      2.12       0.0
  1000104718           JUNCTION             85.94      1.98       0.0
  1000104719           JUNCTION             85.72      2.03       0.0    Yes
  1000104721           JUNCTION             87.23      2.26       0.0    Yes
  1000104722           JUNCTION             85.92      2.40       0.0    Yes
  1000104723           JUNCTION             86.92      1.00       0.0    Yes
  1000104724           JUNCTION             87.97      1.80       0.0    Yes
  1000104725           JUNCTION             86.19      1.50       0.0    Yes
  1000104726           JUNCTION             84.57      2.59       0.0    Yes
  1000104727           JUNCTION             86.61      1.93       0.0
  1000104728           JUNCTION             86.48      1.79       0.0    Yes
  1000104729           JUNCTION             84.06      2.64       0.0    Yes
  1000104730           JUNCTION             83.53      2.49       0.0    Yes
  1000104731           JUNCTION             82.89      2.39       0.0    Yes
  1000104732           JUNCTION             85.02      2.88       0.0    Yes
  1000104733           JUNCTION             85.92      2.19       0.0    Yes
  1000104734           JUNCTION             86.61      2.07       0.0    Yes
  1000104735           JUNCTION             67.66      2.50       0.0    Yes
  1000104736           JUNCTION             68.34      2.70       0.0
  1000104737           JUNCTION             65.95      2.40       0.0    Yes
  1000104738           JUNCTION             68.18      2.75       0.0
  1000104739           JUNCTION             68.31      2.98       0.0    Yes
  1000104740           JUNCTION             63.04      5.40       0.0    Yes
  1000104741           JUNCTION             61.45      6.10       0.0
[...]
  1000855540              1.00   -nan(ind)  -nan(ind)  -nan(ind)  -nan(ind)  -nan(ind)  -nan(ind)  -nan(ind)  -nan(ind)  -nan(ind)
  1000855541              1.00   -nan(ind)  -nan(ind)  -nan(ind)  -nan(ind)  -nan(ind)  -nan(ind)  -nan(ind)  -nan(ind)  -nan(ind)
  1000855542              1.00   -nan(ind)  -nan(ind)  -nan(ind)  -nan(ind)  -nan(ind)  -nan(ind)  -nan(ind)  -nan(ind)  -nan(ind)
  1000855543              1.00   -nan(ind)  -nan(ind)  -nan(ind)  -nan(ind)  -nan(ind)  -nan(ind)  -nan(ind)  -nan(ind)  -nan(ind)
  1000855544              1.00   -nan(ind)  -nan(ind)  -nan(ind)  -nan(ind)  -nan(ind)  -nan(ind)  -nan(ind)  -nan(ind)  -nan(ind)
  1000856013              1.00   -nan(ind)  -nan(ind)  -nan(ind)  -nan(ind)  -nan(ind)  -nan(ind)  -nan(ind)  -nan(ind)  -nan(ind)
  1000856031              1.00   -nan(ind)  -nan(ind)  -nan(ind)  -nan(ind)  -nan(ind)  -nan(ind)  -nan(ind)  -nan(ind)  -nan(ind)
  1000856033              1.00   -nan(ind)  -nan(ind)  -nan(ind)  -nan(ind)  -nan(ind)  -nan(ind)  -nan(ind)  -nan(ind)  -nan(ind)
  1000856037              1.00   -nan(ind)  -nan(ind)  -nan(ind)  -nan(ind)  -nan(ind)  -nan(ind)  -nan(ind)  -nan(ind)  -nan(ind)
  1000856039              1.00   -nan(ind)  -nan(ind)  -nan(ind)  -nan(ind)  -nan(ind)  -nan(ind)  -nan(ind)  -nan(ind)  -nan(ind)
  1000856043              1.00   -nan(ind)  -nan(ind)  -nan(ind)  -nan(ind)  -nan(ind)  -nan(ind)  -nan(ind)  -nan(ind)  -nan(ind)
  1000858170              1.00   -nan(ind)  -nan(ind)  -nan(ind)  -nan(ind)  -nan(ind)  -nan(ind)  -nan(ind)  -nan(ind)  -nan(ind)
  1000858172              1.00   -nan(ind)  -nan(ind)  -nan(ind)  -nan(ind)  -nan(ind)  -nan(ind)  -nan(ind)  -nan(ind)  -nan(ind)
  1000858174              1.00   -nan(ind)  -nan(ind)  -nan(ind)  -nan(ind)  -nan(ind)  -nan(ind)  -nan(ind)  -nan(ind)  -nan(ind)
  1000858186              1.00   -nan(ind)  -nan(ind)  -nan(ind)  -nan(ind)  -nan(ind)  -nan(ind)  -nan(ind)  -nan(ind)  -nan(ind)
  1000858188              1.00   -nan(ind)  -nan(ind)  -nan(ind)  -nan(ind)  -nan(ind)  -nan(ind)  -nan(ind)  -nan(ind)  -nan(ind)
  1000858321              1.00   -nan(ind)  -nan(ind)  -nan(ind)  -nan(ind)  -nan(ind)  -nan(ind)  -nan(ind)  -nan(ind)  -nan(ind)
  1000858332              1.00   -nan(ind)  -nan(ind)  -nan(ind)  -nan(ind)  -nan(ind)  -nan(ind)  -nan(ind)  -nan(ind)  -nan(ind)
  1000858475              1.00   -nan(ind)  -nan(ind)  -nan(ind)  -nan(ind)  -nan(ind)  -nan(ind)  -nan(ind)  -nan(ind)  -nan(ind)
  1000858477              1.00   -nan(ind)  -nan(ind)  -nan(ind)  -nan(ind)  -nan(ind)  -nan(ind)  -nan(ind)  -nan(ind)  -nan(ind)
  1000858479              1.00   -nan(ind)  -nan(ind)  -nan(ind)  -nan(ind)  -nan(ind)  -nan(ind)  -nan(ind)  -nan(ind)  -nan(ind)
  1000858521              1.46   -nan(ind)  -nan(ind)  -nan(ind)  -nan(ind)  -nan(ind)  -nan(ind)  -nan(ind)  -nan(ind)  -nan(ind)
  1000858528              1.00   -nan(ind)  -nan(ind)  -nan(ind)  -nan(ind)  -nan(ind)  -nan(ind)  -nan(ind)  -nan(ind)  -nan(ind)
  1000858530              1.00   -nan(ind)  -nan(ind)  -nan(ind)  -nan(ind)  -nan(ind)  -nan(ind)  -nan(ind)  -nan(ind)  -nan(ind)
  1000858532              1.00   -nan(ind)  -nan(ind)  -nan(ind)  -nan(ind)  -nan(ind)  -nan(ind)  -nan(ind)  -nan(ind)  -nan(ind)
  1000858535              1.00   -nan(ind)  -nan(ind)  -nan(ind)  -nan(ind)  -nan(ind)  -nan(ind)  -nan(ind)  -nan(ind)  -nan(ind)
  1000858537              1.00   -nan(ind)  -nan(ind)  -nan(ind)  -nan(ind)  -nan(ind)  -nan(ind)  -nan(ind)  -nan(ind)  -nan(ind)
  1000860180              1.00   -nan(ind)  -nan(ind)  -nan(ind)  -nan(ind)  -nan(ind)  -nan(ind)  -nan(ind)  -nan(ind)  -nan(ind)
  1000860186              1.00   -nan(ind)  -nan(ind)  -nan(ind)  -nan(ind)  -nan(ind)  -nan(ind)  -nan(ind)  -nan(ind)  -nan(ind)
  1000860188              1.00   -nan(ind)  -nan(ind)  -nan(ind)  -nan(ind)  -nan(ind)  -nan(ind)  -nan(ind)  -nan(ind)  -nan(ind)
  1001075781              1.00   -nan(ind)  -nan(ind)  -nan(ind)  -nan(ind)  -nan(ind)  -nan(ind)  -nan(ind)  -nan(ind)  -nan(ind)
  1001075783              1.00   -nan(ind)  -nan(ind)  -nan(ind)  -nan(ind)  -nan(ind)  -nan(ind)  -nan(ind)  -nan(ind)  -nan(ind)
  1001075785              1.00   -nan(ind)  -nan(ind)  -nan(ind)  -nan(ind)  -nan(ind)  -nan(ind)  -nan(ind)  -nan(ind)  -nan(ind)
  1001075791              1.00   -nan(ind)  -nan(ind)  -nan(ind)  -nan(ind)  -nan(ind)  -nan(ind)  -nan(ind)  -nan(ind)  -nan(ind)
  1001075793              1.88   -nan(ind)  -nan(ind)  -nan(ind)  -nan(ind)  -nan(ind)  -nan(ind)  -nan(ind)  -nan(ind)  -nan(ind)
  1001075795              1.00   -nan(ind)  -nan(ind)  -nan(ind)  -nan(ind)  -nan(ind)  -nan(ind)  -nan(ind)  -nan(ind)  -nan(ind)
  1001075799              1.00   -nan(ind)  -nan(ind)  -nan(ind)  -nan(ind)  -nan(ind)  -nan(ind)  -nan(ind)  -nan(ind)  -nan(ind)
  1001075801              1.00   -nan(ind)  -nan(ind)  -nan(ind)  -nan(ind)  -nan(ind)  -nan(ind)  -nan(ind)  -nan(ind)  -nan(ind)
  1001075804              1.00   -nan(ind)  -nan(ind)  -nan(ind)  -nan(ind)  -nan(ind)  -nan(ind)  -nan(ind)  -nan(ind)  -nan(ind)
  1001075810              1.00   -nan(ind)  -nan(ind)  -nan(ind)  -nan(ind)  -nan(ind)  -nan(ind)  -nan(ind)  -nan(ind)  -nan(ind)
  1001075971              1.00   -nan(ind)  -nan(ind)  -nan(ind)  -nan(ind)  -nan(ind)  -nan(ind)  -nan(ind)  -nan(ind)  -nan(ind)
  1001075982              1.00   -nan(ind)  -nan(ind)  -nan(ind)  -nan(ind)  -nan(ind)  -nan(ind)  -nan(ind)  -nan(ind)  -nan(ind)
  1001076323              1.00   -nan(ind)  -nan(ind)  -nan(ind)  -nan(ind)  -nan(ind)  -nan(ind)  -nan(ind)  -nan(ind)  -nan(ind)
  1001076330              1.00   -nan(ind)  -nan(ind)  -nan(ind)  -nan(ind)  -nan(ind)  -nan(ind)  -nan(ind)  -nan(ind)  -nan(ind)
  1001076332              1.00   -nan(ind)  -nan(ind)  -nan(ind)  -nan(ind)  -nan(ind)  -nan(ind)  -nan(ind)  -nan(ind)  -nan(ind)
  1001076334              1.00   -nan(ind)  -nan(ind)  -nan(ind)  -nan(ind)  -nan(ind)  -nan(ind)  -nan(ind)  -nan(ind)  -nan(ind)
  1001076336              1.00   -nan(ind)  -nan(ind)  -nan(ind)  -nan(ind)  -nan(ind)  -nan(ind)  -nan(ind)  -nan(ind)  -nan(ind)
  1001077521              1.00   -nan(ind)  -nan(ind)  -nan(ind)  -nan(ind)  -nan(ind)  -nan(ind)  -nan(ind)  -nan(ind)  -nan(ind)
  1001077523              1.00   -nan(ind)  -nan(ind)  -nan(ind)  -nan(ind)  -nan(ind)  -nan(ind)  -nan(ind)  -nan(ind)  -nan(ind)
  1001077541              1.00   -nan(ind)  -nan(ind)  -nan(ind)  -nan(ind)  -nan(ind)  -nan(ind)  -nan(ind)  -nan(ind)  -nan(ind)
  1001077575              1.00   -nan(ind)  -nan(ind)  -nan(ind)  -nan(ind)  -nan(ind)  -nan(ind)  -nan(ind)  -nan(ind)  -nan(ind)
  1001084468              1.00   -nan(ind)  -nan(ind)  -nan(ind)  -nan(ind)  -nan(ind)  -nan(ind)  -nan(ind)  -nan(ind)  -nan(ind)
  1001084560              1.00   -nan(ind)  -nan(ind)  -nan(ind)  -nan(ind)  -nan(ind)  -nan(ind)  -nan(ind)  -nan(ind)  -nan(ind)
  1001084562              1.00   -nan(ind)  -nan(ind)  -nan(ind)  -nan(ind)  -nan(ind)  -nan(ind)  -nan(ind)  -nan(ind)  -nan(ind)
  1001084564              1.00   -nan(ind)  -nan(ind)  -nan(ind)  -nan(ind)  -nan(ind)  -nan(ind)  -nan(ind)  -nan(ind)  -nan(ind)
  1001084565              2.54   -nan(ind)  -nan(ind)  -nan(ind)  -nan(ind)  -nan(ind)  -nan(ind)  -nan(ind)  -nan(ind)  -nan(ind)
  1001122078              1.00   -nan(ind)  -nan(ind)  -nan(ind)  -nan(ind)  -nan(ind)  -nan(ind)  -nan(ind)  -nan(ind)  -nan(ind)
  1001122082              1.00   -nan(ind)  -nan(ind)  -nan(ind)  -nan(ind)  -nan(ind)  -nan(ind)  -nan(ind)  -nan(ind)  -nan(ind)
  1001122114              1.00   -nan(ind)  -nan(ind)  -nan(ind)  -nan(ind)  -nan(ind)  -nan(ind)  -nan(ind)  -nan(ind)  -nan(ind)
  1001122182              1.00   -nan(ind)  -nan(ind)  -nan(ind)  -nan(ind)  -nan(ind)  -nan(ind)  -nan(ind)  -nan(ind)  -nan(ind)
  1001124278              1.00   -nan(ind)  -nan(ind)  -nan(ind)  -nan(ind)  -nan(ind)  -nan(ind)  -nan(ind)  -nan(ind)  -nan(ind)
  1001124280              1.00   -nan(ind)  -nan(ind)  -nan(ind)  -nan(ind)  -nan(ind)  -nan(ind)  -nan(ind)  -nan(ind)  -nan(ind)
  1001124282              1.00   -nan(ind)  -nan(ind)  -nan(ind)  -nan(ind)  -nan(ind)  -nan(ind)  -nan(ind)  -nan(ind)  -nan(ind)
  1001124284              1.00   -nan(ind)  -nan(ind)  -nan(ind)  -nan(ind)  -nan(ind)  -nan(ind)  -nan(ind)  -nan(ind)  -nan(ind)
  1001125743              1.00   -nan(ind)  -nan(ind)  -nan(ind)  -nan(ind)  -nan(ind)  -nan(ind)  -nan(ind)  -nan(ind)  -nan(ind)
  1001125823              1.00   -nan(ind)  -nan(ind)  -nan(ind)  -nan(ind)  -nan(ind)  -nan(ind)  -nan(ind)  -nan(ind)  -nan(ind)
  1001126190              2.45   -nan(ind)  -nan(ind)  -nan(ind)  -nan(ind)  -nan(ind)  -nan(ind)  -nan(ind)  -nan(ind)  -nan(ind)
  1001126192              1.00   -nan(ind)  -nan(ind)  -nan(ind)  -nan(ind)  -nan(ind)  -nan(ind)  -nan(ind)  -nan(ind)  -nan(ind)
  1001126194              1.00   -nan(ind)  -nan(ind)  -nan(ind)  -nan(ind)  -nan(ind)  -nan(ind)  -nan(ind)  -nan(ind)  -nan(ind)
  1001126196              1.00   -nan(ind)  -nan(ind)  -nan(ind)  -nan(ind)  -nan(ind)  -nan(ind)  -nan(ind)  -nan(ind)  -nan(ind)
  1001127439              1.00   -nan(ind)  -nan(ind)  -nan(ind)  -nan(ind)  -nan(ind)  -nan(ind)  -nan(ind)  -nan(ind)  -nan(ind)
  1001131054              1.00   -nan(ind)  -nan(ind)  -nan(ind)  -nan(ind)  -nan(ind)  -nan(ind)  -nan(ind)  -nan(ind)  -nan(ind)
  1001131065              1.00   -nan(ind)  -nan(ind)  -nan(ind)  -nan(ind)  -nan(ind)  -nan(ind)  -nan(ind)  -nan(ind)  -nan(ind)
  1001131071              1.00   -nan(ind)  -nan(ind)  -nan(ind)  -nan(ind)  -nan(ind)  -nan(ind)  -nan(ind)  -nan(ind)  -nan(ind)
  1001131073              1.00   -nan(ind)  -nan(ind)  -nan(ind)  -nan(ind)  -nan(ind)  -nan(ind)  -nan(ind)  -nan(ind)  -nan(ind)
  1001134852              1.00   -nan(ind)  -nan(ind)  -nan(ind)  -nan(ind)  -nan(ind)  -nan(ind)  -nan(ind)  -nan(ind)  -nan(ind)
  1001134853              2.17   -nan(ind)  -nan(ind)  -nan(ind)  -nan(ind)  -nan(ind)  -nan(ind)  -nan(ind)  -nan(ind)  -nan(ind)
  1001145340              1.00   -nan(ind)  -nan(ind)  -nan(ind)  -nan(ind)  -nan(ind)  -nan(ind)  -nan(ind)  -nan(ind)  -nan(ind)
  1001145346              1.00   -nan(ind)  -nan(ind)  -nan(ind)  -nan(ind)  -nan(ind)  -nan(ind)  -nan(ind)  -nan(ind)  -nan(ind)
  1001145349              1.00   -nan(ind)  -nan(ind)  -nan(ind)  -nan(ind)  -nan(ind)  -nan(ind)  -nan(ind)  -nan(ind)  -nan(ind)
  1001145352              1.00   -nan(ind)  -nan(ind)  -nan(ind)  -nan(ind)  -nan(ind)  -nan(ind)  -nan(ind)  -nan(ind)  -nan(ind)
  1001145648              1.00   -nan(ind)  -nan(ind)  -nan(ind)  -nan(ind)  -nan(ind)  -nan(ind)  -nan(ind)  -nan(ind)  -nan(ind)
  1001145651              1.00   -nan(ind)  -nan(ind)  -nan(ind)  -nan(ind)  -nan(ind)  -nan(ind)  -nan(ind)  -nan(ind)  -nan(ind)
  1001145653              1.00   -nan(ind)  -nan(ind)  -nan(ind)  -nan(ind)  -nan(ind)  -nan(ind)  -nan(ind)  -nan(ind)  -nan(ind)
  1001149688              1.00   -nan(ind)  -nan(ind)  -nan(ind)  -nan(ind)  -nan(ind)  -nan(ind)  -nan(ind)  -nan(ind)  -nan(ind)
  1001149690              1.00   -nan(ind)  -nan(ind)  -nan(ind)  -nan(ind)  -nan(ind)  -nan(ind)  -nan(ind)  -nan(ind)  -nan(ind)
  1001149692              1.00   -nan(ind)  -nan(ind)  -nan(ind)  -nan(ind)  -nan(ind)  -nan(ind)  -nan(ind)  -nan(ind)  -nan(ind)
  1001149694              2.09   -nan(ind)  -nan(ind)  -nan(ind)  -nan(ind)  -nan(ind)  -nan(ind)  -nan(ind)  -nan(ind)  -nan(ind)
  1001149731              1.00   -nan(ind)  -nan(ind)  -nan(ind)  -nan(ind)  -nan(ind)  -nan(ind)  -nan(ind)  -nan(ind)  -nan(ind)
  1001149746              3.15   -nan(ind)  -nan(ind)  -nan(ind)  -nan(ind)  -nan(ind)  -nan(ind)  -nan(ind)  -nan(ind)  -nan(ind)
  1001149747              2.59   -nan(ind)  -nan(ind)  -nan(ind)  -nan(ind)  -nan(ind)  -nan(ind)  -nan(ind)  -nan(ind)  -nan(ind)
  1001150877              1.00   -nan(ind)  -nan(ind)  -nan(ind)  -nan(ind)  -nan(ind)  -nan(ind)  -nan(ind)  -nan(ind)  -nan(ind)
  1001150879              1.96   -nan(ind)  -nan(ind)  -nan(ind)  -nan(ind)  -nan(ind)  -nan(ind)  -nan(ind)  -nan(ind)  -nan(ind)
  1001157662              2.14   -nan(ind)  -nan(ind)  -nan(ind)  -nan(ind)  -nan(ind)  -nan(ind)  -nan(ind)  -nan(ind)  -nan(ind)
  1001157663              1.00   -nan(ind)  -nan(ind)  -nan(ind)  -nan(ind)  -nan(ind)  -nan(ind)  -nan(ind)  -nan(ind)  -nan(ind)
  1001157665              5.68   -nan(ind)  -nan(ind)  -nan(ind)  -nan(ind)  -nan(ind)  -nan(ind)  -nan(ind)  -nan(ind)  -nan(ind)
  1001158520              1.00   -nan(ind)  -nan(ind)  -nan(ind)  -nan(ind)  -nan(ind)  -nan(ind)  -nan(ind)  -nan(ind)  -nan(ind)
  1001158522              1.00   -nan(ind)  -nan(ind)  -nan(ind)  -nan(ind)  -nan(ind)  -nan(ind)  -nan(ind)  -nan(ind)  -nan(ind)
  1001158545              1.00   -nan(ind)  -nan(ind)  -nan(ind)  -nan(ind)  -nan(ind)  -nan(ind)  -nan(ind)  -nan(ind)  -nan(ind)
  1001158547              1.00   -nan(ind)  -nan(ind)  -nan(ind)  -nan(ind)  -nan(ind)  -nan(ind)  -nan(ind)  -nan(ind)  -nan(ind)
  1001158589              1.00   -nan(ind)  -nan(ind)  -nan(ind)  -nan(ind)  -nan(ind)  -nan(ind)  -nan(ind)  -nan(ind)  -nan(ind)
  1001158591             11.44   -nan(ind)  -nan(ind)  -nan(ind)  -nan(ind)  -nan(ind)  -nan(ind)  -nan(ind)  -nan(ind)  -nan(ind)
  1001158592              1.00   -nan(ind)  -nan(ind)  -nan(ind)  -nan(ind)  -nan(ind)  -nan(ind)  -nan(ind)  -nan(ind)  -nan(ind)
  1001158594              1.00   -nan(ind)  -nan(ind)  -nan(ind)  -nan(ind)  -nan(ind)  -nan(ind)  -nan(ind)  -nan(ind)  -nan(ind)
  1001158639              1.06   -nan(ind)  -nan(ind)  -nan(ind)  -nan(ind)  -nan(ind)  -nan(ind)  -nan(ind)  -nan(ind)  -nan(ind)
  1001158641              1.00   -nan(ind)  -nan(ind)  -nan(ind)  -nan(ind)  -nan(ind)  -nan(ind)  -nan(ind)  -nan(ind)  -nan(ind)
  1001158660              1.00   -nan(ind)  -nan(ind)  -nan(ind)  -nan(ind)  -nan(ind)  -nan(ind)  -nan(ind)  -nan(ind)  -nan(ind)
  1001158662              1.00   -nan(ind)  -nan(ind)  -nan(ind)  -nan(ind)  -nan(ind)  -nan(ind)  -nan(ind)  -nan(ind)  -nan(ind)
  1001160839              1.00   -nan(ind)  -nan(ind)  -nan(ind)  -nan(ind)  -nan(ind)  -nan(ind)  -nan(ind)  -nan(ind)  -nan(ind)
  1001160843              1.00   -nan(ind)  -nan(ind)  -nan(ind)  -nan(ind)  -nan(ind)  -nan(ind)  -nan(ind)  -nan(ind)  -nan(ind)
  1001160889              1.00   -nan(ind)  -nan(ind)  -nan(ind)  -nan(ind)  -nan(ind)  -nan(ind)  -nan(ind)  -nan(ind)  -nan(ind)
  NCP_NEWTON_82P          1.00   -nan(ind)  -nan(ind)  -nan(ind)  -nan(ind)  -nan(ind)  -nan(ind)  -nan(ind)  -nan(ind)  -nan(ind)
  NCP_NEWTON_83P          1.00   -nan(ind)  -nan(ind)  -nan(ind)  -nan(ind)  -nan(ind)  -nan(ind)  -nan(ind)  -nan(ind)  -nan(ind)
  NCP_NEWTON_84P          1.00   -nan(ind)  -nan(ind)  -nan(ind)  -nan(ind)  -nan(ind)  -nan(ind)  -nan(ind)  -nan(ind)  -nan(ind)
  NCP_NEWTON_85P          1.00   -nan(ind)  -nan(ind)  -nan(ind)  -nan(ind)  -nan(ind)  -nan(ind)  -nan(ind)  -nan(ind)  -nan(ind)
  NCP_NEWTON_86P          1.00   -nan(ind)  -nan(ind)  -nan(ind)  -nan(ind)  -nan(ind)  -nan(ind)  -nan(ind)  -nan(ind)  -nan(ind)
  NCP_NEWTON_87P          1.00   -nan(ind)  -nan(ind)  -nan(ind)  -nan(ind)  -nan(ind)  -nan(ind)  -nan(ind)  -nan(ind)  -nan(ind)
  NCP_NEWTON_88P          1.00   -nan(ind)  -nan(ind)  -nan(ind)  -nan(ind)  -nan(ind)  -nan(ind)  -nan(ind)  -nan(ind)  -nan(ind)
  NCP_NEWTON_89P          1.00   -nan(ind)  -nan(ind)  -nan(ind)  -nan(ind)  -nan(ind)  -nan(ind)  -nan(ind)  -nan(ind)  -nan(ind)
  NCP_NEWTON_90P          1.00   -nan(ind)  -nan(ind)  -nan(ind)  -nan(ind)  -nan(ind)  -nan(ind)  -nan(ind)  -nan(ind)  -nan(ind)
  NCP_NEWTON_90P2         1.00   -nan(ind)  -nan(ind)  -nan(ind)  -nan(ind)  -nan(ind)  -nan(ind)  -nan(ind)  -nan(ind)  -nan(ind)
  NCP_NEWTON_91P          1.00   -nan(ind)  -nan(ind)  -nan(ind)  -nan(ind)  -nan(ind)  -nan(ind)  -nan(ind)  -nan(ind)  -nan(ind)
  NCP_NEWTON_92P          1.00   -nan(ind)  -nan(ind)  -nan(ind)  -nan(ind)  -nan(ind)  -nan(ind)  -nan(ind)  -nan(ind)  -nan(ind)
  NCP_NEWTON_93P          1.00   -nan(ind)  -nan(ind)  -nan(ind)  -nan(ind)  -nan(ind)  -nan(ind)  -nan(ind)  -nan(ind)  -nan(ind)
  NCP_NEWTON_94P          1.00   -nan(ind)  -nan(ind)  -nan(ind)  -nan(ind)  -nan(ind)  -nan(ind)  -nan(ind)  -nan(ind)  -nan(ind)
  NCP_NEWTON_95P          1.00   -nan(ind)  -nan(ind)  -nan(ind)  -nan(ind)  -nan(ind)  -nan(ind)  -nan(ind)  -nan(ind)  -nan(ind)
  NCP_NEWTON_96P          1.00   -nan(ind)  -nan(ind)  -nan(ind)  -nan(ind)  -nan(ind)  -nan(ind)  -nan(ind)  -nan(ind)  -nan(ind)
  OCP_62P                 1.00   -nan(ind)  -nan(ind)  -nan(ind)  -nan(ind)  -nan(ind)  -nan(ind)  -nan(ind)  -nan(ind)  -nan(ind)
  OCP_63P                 1.00   -nan(ind)  -nan(ind)  -nan(ind)  -nan(ind)  -nan(ind)  -nan(ind)  -nan(ind)  -nan(ind)  -nan(ind)
  OCP_64P                 1.00   -nan(ind)  -nan(ind)  -nan(ind)  -nan(ind)  -nan(ind)  -nan(ind)  -nan(ind)  -nan(ind)  -nan(ind)
  OCP_67P                 1.00   -nan(ind)  -nan(ind)  -nan(ind)  -nan(ind)  -nan(ind)  -nan(ind)  -nan(ind)  -nan(ind)  -nan(ind)
  OCP_68P                 1.00   -nan(ind)  -nan(ind)  -nan(ind)  -nan(ind)  -nan(ind)  -nan(ind)  -nan(ind)  -nan(ind)  -nan(ind)
  OCP_69P                 1.00   -nan(ind)  -nan(ind)  -nan(ind)  -nan(ind)  -nan(ind)  -nan(ind)  -nan(ind)  -nan(ind)  -nan(ind)
  OCP_70P                 1.00   -nan(ind)  -nan(ind)  -nan(ind)  -nan(ind)  -nan(ind)  -nan(ind)  -nan(ind)  -nan(ind)  -nan(ind)
  OCP_71P                 1.00   -nan(ind)  -nan(ind)  -nan(ind)  -nan(ind)  -nan(ind)  -nan(ind)  -nan(ind)  -nan(ind)  -nan(ind)
  OCP_72P                 1.00   -nan(ind)  -nan(ind)  -nan(ind)  -nan(ind)  -nan(ind)  -nan(ind)  -nan(ind)  -nan(ind)  -nan(ind)
  OCP_73P                 1.00   -nan(ind)  -nan(ind)  -nan(ind)  -nan(ind)  -nan(ind)  -nan(ind)  -nan(ind)  -nan(ind)  -nan(ind)
  OCP_74P                 1.00   -nan(ind)  -nan(ind)  -nan(ind)  -nan(ind)  -nan(ind)  -nan(ind)  -nan(ind)  -nan(ind)  -nan(ind)
  PUMPOUT-30             32.19   -nan(ind)  -nan(ind)  -nan(ind)  -nan(ind)  -nan(ind)  -nan(ind)  -nan(ind)  -nan(ind)  -nan(ind)
  PUMPOUT-31             32.19   -nan(ind)  -nan(ind)  -nan(ind)  -nan(ind)  -nan(ind)  -nan(ind)  -nan(ind)  -nan(ind)  -nan(ind)
  PUMPOUT-38             19.09   -nan(ind)  -nan(ind)  -nan(ind)  -nan(ind)  -nan(ind)  -nan(ind)  -nan(ind)  -nan(ind)  -nan(ind)
  PUMPOUT-39             19.09   -nan(ind)  -nan(ind)  -nan(ind)  -nan(ind)  -nan(ind)  -nan(ind)  -nan(ind)  -nan(ind)  -nan(ind)
  PUMPOUT-88              3.76   -nan(ind)  -nan(ind)  -nan(ind)  -nan(ind)  -nan(ind)  -nan(ind)  -nan(ind)  -nan(ind)  -nan(ind)
  PUMPOUT-90              1.00   -nan(ind)  -nan(ind)  -nan(ind)  -nan(ind)  -nan(ind)  -nan(ind)  -nan(ind)  -nan(ind)  -nan(ind)
  
  
  *************************
  Conduit Surcharge Summary
  *************************
  
  No conduits were surcharged.
  
  
  ***************
  Pumping Summary
  ***************
  
  ---------------------------------------------------------------------------------------------------------
                                                  Min       Avg       Max     Total     Power    % Time Off
                        Percent   Number of      Flow      Flow      Flow    Volume     Usage    Pump Curve
  Pump                 Utilized   Start-Ups       LPS       LPS       LPS  10^6 ltr     Kw-hr    Low   High
  ---------------------------------------------------------------------------------------------------------
  1000075200-P1        -nan(ind)           0      0.00      0.00      0.00     0.000      0.00    0.0    0.0
  1000075215-P1        -nan(ind)           0      0.00      0.00      0.00     0.000      0.00    0.0    0.0
  

  Analysis begun on:  Sat Nov 30 08:10:25 2019
  Analysis ended on:  Sat Nov 30 08:10:26 2019
  Total elapsed time: 00:00:01