
  EPA STORM WATER MANAGEMENT MODEL - VERSION 5.1 (Build 5.1.013)
  --------------------------------------------------------------

  WARNING 04: minimum elevation drop used for Conduit 2524956
  WARNING 04: minimum elevation drop used for Conduit 2525280
  WARNING 03: negative offset ignored for Link 2525722
  WARNING 04: minimum elevation drop used for Conduit 2623392_3
  WARNING 04: minimum elevation drop used for Conduit 2623392_4
  WARNING 04: minimum elevation drop used for Conduit 2623544
  WARNING 03: negative offset ignored for Link 2623898_3
  WARNING 03: negative offset ignored for Link 2623898_4
  WARNING 03: negative offset ignored for Link 2623898_4
  WARNING 03: negative offset ignored for Link 2623898_5
  WARNING 04: minimum elevation drop used for Conduit 2623907_1
  WARNING 04: minimum elevation drop used for Conduit 2623924
  WARNING 03: negative offset ignored for Link 2623952
  WARNING 04: minimum elevation drop used for Conduit 2623959_1
  WARNING 04: minimum elevation drop used for Conduit 2623959_2
  WARNING 04: minimum elevation drop used for Conduit 2623960_6
  WARNING 04: minimum elevation drop used for Conduit 2623961
  WARNING 03: negative offset ignored for Link 2623964
  WARNING 03: negative offset ignored for Link 2623964_1
  WARNING 03: negative offset ignored for Link 2624766
  WARNING 03: negative offset ignored for Link 2624766_2
  WARNING 03: negative offset ignored for Link 2626435
  WARNING 03: negative offset ignored for Link 2626435_1
  WARNING 03: negative offset ignored for Link 2626436
  WARNING 03: negative offset ignored for Link 2626441_1
  WARNING 04: minimum elevation drop used for Conduit 2626443_2
  WARNING 03: negative offset ignored for Link 2626443_5
  WARNING 03: negative offset ignored for Link 2626443_6
  WARNING 03: negative offset ignored for Link 2626443_8
  WARNING 03: negative offset ignored for Link 2626444_1
  WARNING 03: negative offset ignored for Link 2626444_2
  WARNING 03: negative offset ignored for Link 2626445_1
  WARNING 03: negative offset ignored for Link 2626445_1
  WARNING 03: negative offset ignored for Link 2626445_2
  WARNING 03: negative offset ignored for Link 2626445_7
  WARNING 03: negative offset ignored for Link 2626445_8
  WARNING 03: negative offset ignored for Link 2626445_9
  WARNING 03: negative offset ignored for Link 2626458
  WARNING 03: negative offset ignored for Link 2626459
  WARNING 03: negative offset ignored for Link 2626459_1
  WARNING 03: negative offset ignored for Link 2626459_1
  WARNING 03: negative offset ignored for Link 2626459_2
  WARNING 03: negative offset ignored for Link 2626459_2
  WARNING 03: negative offset ignored for Link 2626462
  WARNING 03: negative offset ignored for Link 2626463
  WARNING 03: negative offset ignored for Link 2626463_1
  WARNING 03: negative offset ignored for Link 2626759
  WARNING 03: negative offset ignored for Link 2626759
  WARNING 03: negative offset ignored for Link 2626759_1
  WARNING 03: negative offset ignored for Link 2626759_3
  WARNING 03: negative offset ignored for Link 2626759_4
  WARNING 03: negative offset ignored for Link 2626759_5
  WARNING 03: negative offset ignored for Link 2626760
  WARNING 03: negative offset ignored for Link 2626760_1
  WARNING 03: negative offset ignored for Link 2626760_2
  WARNING 03: negative offset ignored for Link 2626761
  WARNING 03: negative offset ignored for Link 2626761_1
  WARNING 03: negative offset ignored for Link 2626761_1
  WARNING 04: minimum elevation drop used for Conduit 5023528_1
  WARNING 04: minimum elevation drop used for Conduit 5023531_1
  WARNING 04: minimum elevation drop used for Conduit 5023531_2
  WARNING 04: minimum elevation drop used for Conduit 5023531_3
  WARNING 04: minimum elevation drop used for Conduit 5023539
  WARNING 04: minimum elevation drop used for Conduit 5023540
  WARNING 04: minimum elevation drop used for Conduit 5023545
  WARNING 04: minimum elevation drop used for Conduit 5023546
  WARNING 04: minimum elevation drop used for Conduit 5023547
  WARNING 04: minimum elevation drop used for Conduit 5023560
  WARNING 04: minimum elevation drop used for Conduit 5023560_1
  WARNING 04: minimum elevation drop used for Conduit 5029139_3
  WARNING 04: minimum elevation drop used for Conduit 5029141_4
  WARNING 04: minimum elevation drop used for Conduit 5029141_5
  WARNING 04: minimum elevation drop used for Conduit 5029177_7
  WARNING 03: negative offset ignored for Link 5029177_8
  WARNING 03: negative offset ignored for Link 5029177_8
  
  *************
  Element Count
  *************
  Number of rain gages ...... 0
  Number of subcatchments ... 0
  Number of nodes ........... 2055
  Number of links ........... 2096
  Number of pollutants ...... 0
  Number of land uses ....... 0
  
  
  ************
  Node Summary
  ************
                                           Invert      Max.    Ponded    External
  Name                 Type                 Elev.     Depth      Area    Inflow  
  -------------------------------------------------------------------------------
  2525746_NODE1        JUNCTION             -0.80      0.38       0.0
  2657375              JUNCTION              0.43      1.32       0.0
  2657376              JUNCTION              1.10      0.40       0.0
  2657377              JUNCTION              1.77      0.23       0.0    Yes
  2657379              JUNCTION              1.18      1.39       0.0    Yes
  2657381              JUNCTION              1.66      1.50       0.0    Yes
  2657382              JUNCTION              1.11      1.85       0.0    Yes
  2657383              JUNCTION              0.72      2.14       0.0
  2657384              JUNCTION              0.87      2.28       0.0    Yes
  2657385              JUNCTION             -1.76      3.65       0.0    Yes
  2657386              JUNCTION             -2.23      4.57       0.0    Yes
  2657387              JUNCTION             -1.83      4.11       0.0    Yes
  2657388              JUNCTION             -1.50      3.88       0.0
  2657389              JUNCTION             -1.04      3.39       0.0    Yes
  2657390              JUNCTION             -0.81      3.08       0.0
  2657391              JUNCTION             -1.61      4.34       0.0    Yes
  2657392              JUNCTION             -0.38      2.83       0.0    Yes
  2657393              JUNCTION             -0.08      2.40       0.0    Yes
  2657394              JUNCTION              0.14      2.35       0.0    Yes
  2657395              JUNCTION              0.54      1.93       0.0    Yes
  2657396              JUNCTION              0.76      1.78       0.0    Yes
  2657397              JUNCTION              1.10      1.36       0.0    Yes
  2657398              JUNCTION             -0.32      2.65       0.0    Yes
  2657399              JUNCTION             -0.58      2.70       0.0    Yes
  2657400              JUNCTION             -0.88      3.30       0.0    Yes
  2657401              JUNCTION             -0.05      2.59       0.0    Yes
  2657402              JUNCTION             -1.14      3.58       0.0    Yes
  2657403              JUNCTION             -1.05      3.44       0.0    Yes
  2657404              JUNCTION              0.16      1.84       0.0    Yes
  2657405              JUNCTION              1.09      1.38       0.0    Yes
  2657406              JUNCTION             -0.03      1.75       0.0
  2657407              JUNCTION             -0.33      2.59       0.0
  2657408              JUNCTION              0.56      1.90       0.0    Yes
  2657409              JUNCTION              0.82      1.61       0.0    Yes
  2657410              JUNCTION             -2.38      4.76       0.0    Yes
  2657411              JUNCTION             -2.19      4.46       0.0
  2657412              JUNCTION             -2.04      4.39       0.0    Yes
  2657413              JUNCTION             -1.47      4.02       0.0    Yes
  2657414              JUNCTION             -0.12      2.77       0.0    Yes
  2657415              JUNCTION             -0.02      2.63       0.0    Yes
  2657416              JUNCTION              0.54      1.92       0.0    Yes
  2657417              JUNCTION              0.46      2.06       0.0    Yes
  2657418              JUNCTION              0.85      1.58       0.0    Yes
  2657419              JUNCTION              0.85      1.63       0.0    Yes
  2657420              JUNCTION              0.16      2.31       0.0    Yes
  2657421              JUNCTION              0.27      1.91       0.0    Yes
  2657422              JUNCTION             -0.24      2.54       0.0    Yes
  2657423              JUNCTION              0.51      1.79       0.0    Yes
  2657424              JUNCTION              0.50      1.97       0.0    Yes
  2657425              JUNCTION              0.23      2.09       0.0
  2657426              JUNCTION              0.74      1.75       0.0    Yes
  2657427              JUNCTION             -0.42      2.71       0.0    Yes
  2657428              JUNCTION             -0.15      2.43       0.0    Yes
  2657429              JUNCTION              0.44      2.05       0.0    Yes
  2657430              JUNCTION              0.34      2.11       0.0    Yes
  2657431              JUNCTION              0.11      2.24       0.0    Yes
  2657432              JUNCTION             -0.99      3.36       0.0    Yes
  2657433              JUNCTION             -0.66      2.98       0.0    Yes
  2657434              JUNCTION             -1.26      3.76       0.0    Yes
  2657435              JUNCTION             -0.70      3.20       0.0    Yes
  2657436              JUNCTION             -0.34      2.64       0.0    Yes
  2657437              JUNCTION             -0.32      2.64       0.0    Yes
  2657438              JUNCTION              0.72      1.60       0.0    Yes
  2657439              JUNCTION              0.14      2.21       0.0    Yes
  2657440              JUNCTION             -0.10      2.40       0.0    Yes
  2657441              JUNCTION              0.21      2.16       0.0    Yes
  2657442              JUNCTION              0.95      1.53       0.0    Yes
  2657443              JUNCTION              0.75      1.57       0.0    Yes
  2657444              JUNCTION             -0.06      2.46       0.0    Yes
  2657445              JUNCTION              0.62      1.91       0.0    Yes
  2657446              JUNCTION              0.16      2.49       0.0    Yes
  2657447              JUNCTION              0.69      1.82       0.0    Yes
  2657448              JUNCTION              1.22      1.10       0.0    Yes
  2657449              JUNCTION              0.54      1.83       0.0    Yes
  2657450              JUNCTION              1.13      1.10       0.0    Yes
  2657451              JUNCTION              0.12      2.10       0.0    Yes
  2657452              JUNCTION              0.85      1.67       0.0    Yes
  2657453              JUNCTION              0.25      2.20       0.0    Yes
  2657454              JUNCTION             -0.88      3.29       0.0    Yes
  2657455              JUNCTION             -0.94      3.25       0.0    Yes
  2657456              JUNCTION             -1.05      3.32       0.0    Yes
  2657457              JUNCTION             -1.14      3.51       0.0    Yes
  2657458              JUNCTION             -1.22      3.60       0.0    Yes
  2657459              JUNCTION             -1.37      3.92       0.0    Yes
  2657460              JUNCTION             -0.25      2.94       0.0    Yes
  2657461              JUNCTION              0.08      2.41       0.0    Yes
  2657462              JUNCTION              0.39      2.11       0.0    Yes
  2657463              JUNCTION             -1.46      3.78       0.0    Yes
  2657464              JUNCTION             -1.30      3.58       0.0    Yes
  2657465              JUNCTION             -1.07      3.43       0.0    Yes
  2657466              JUNCTION             -0.53      3.02       0.0    Yes
  2657467              JUNCTION             -0.03      2.48       0.0    Yes
  2657468              JUNCTION              0.53      1.97       0.0    Yes
  2657469              JUNCTION             -0.23      2.71       0.0    Yes
  2657470              JUNCTION              0.74      1.77       0.0    Yes
  2657471              JUNCTION             -0.26      2.51       0.0    Yes
  2657472              JUNCTION              0.95      1.46       0.0    Yes
  2657473              JUNCTION             -0.33      2.73       0.0    Yes
  2657474              JUNCTION             -0.20      2.47       0.0    Yes
  2657475              JUNCTION             -0.16      2.46       0.0    Yes
  2657476              JUNCTION              0.75      1.42       0.0    Yes
  2657477              JUNCTION              0.18      2.23       0.0    Yes
  2657478              JUNCTION              0.79      1.45       0.0    Yes
  2657479              JUNCTION             -0.03      2.38       0.0    Yes
  2657480              JUNCTION              0.14      2.33       0.0    Yes
  2657481              JUNCTION              0.46      2.03       0.0    Yes
  2657482              JUNCTION              0.61      1.90       0.0    Yes
  2657483              JUNCTION             -0.18      2.54       0.0    Yes
  2657484              JUNCTION              0.73      1.65       0.0    Yes
  2657485              JUNCTION             -0.07      2.36       0.0    Yes
  2657486              JUNCTION             -0.46      2.90       0.0    Yes
  2657487              JUNCTION             -0.66      3.04       0.0    Yes
  2657488              JUNCTION              0.43      1.72       0.0    Yes
  2657489              JUNCTION              0.88      1.70       0.0    Yes
  2657490              JUNCTION              0.92      1.51       0.0    Yes
  2657491              JUNCTION             -0.42      2.62       0.0    Yes
  2657492              JUNCTION              0.15      2.16       0.0    Yes
  2657493              JUNCTION              1.17      1.45       0.0    Yes
  2657494              JUNCTION              0.62      1.87       0.0    Yes
  2657495              JUNCTION              0.99      1.49       0.0    Yes
  2657496              JUNCTION             -0.93      3.33       0.0    Yes
  2657497              JUNCTION             -1.62      4.07       0.0    Yes
  2657498              JUNCTION             -1.71      4.23       0.0    Yes
  2657499              JUNCTION             -1.94      4.37       0.0    Yes
  2657500              JUNCTION             -0.49      2.86       0.0
  2657501              JUNCTION             -1.11      2.81       0.0
  2657502              JUNCTION             -1.16      2.99       0.0    Yes
  2657503              JUNCTION             -1.21      3.50       0.0
  2657504              JUNCTION             -0.94      2.37       0.0
  2657505              JUNCTION             -0.76      3.07       0.0    Yes
  2657506              JUNCTION             -0.63      2.87       0.0    Yes
  2657507              JUNCTION             -0.42      2.72       0.0    Yes
  2657508              JUNCTION             -0.20      2.49       0.0    Yes
  2657509              JUNCTION             -1.36      3.86       0.0    Yes
  2657510              JUNCTION             -1.24      3.92       0.0    Yes
  2657511              JUNCTION             -2.61      4.63       0.0
  2657512              JUNCTION             -2.24      4.61       0.0    Yes
  2657513              JUNCTION             -2.28      4.78       0.0    Yes
  2657514              JUNCTION              0.01      2.28       0.0
  2657515              JUNCTION              0.27      2.05       0.0    Yes
  2657516              JUNCTION             -0.02      2.42       0.0    Yes
  2657517              JUNCTION              0.95      1.47       0.0    Yes
  2657518              JUNCTION             -0.68      3.16       0.0    Yes
  2657519              JUNCTION              0.36      2.16       0.0    Yes
  2657520              JUNCTION             -0.59      2.91       0.0    Yes
  2657521              JUNCTION             -1.04      3.36       0.0    Yes
  2657522              JUNCTION              0.16      2.07       0.0    Yes
  2657523              JUNCTION              0.50      1.83       0.0    Yes
  2657524              JUNCTION             -0.37      2.55       0.0    Yes
  2657525              JUNCTION             -1.41      3.89       0.0    Yes
  2657526              JUNCTION             -1.95      4.51       0.0    Yes
  2657527              JUNCTION              0.04      2.30       0.0    Yes
  2657528              JUNCTION             -0.76      3.02       0.0    Yes
  2657529              JUNCTION             -0.27      2.58       0.0    Yes
  2657530              JUNCTION             -0.04      2.35       0.0    Yes
  2657531              JUNCTION              0.20      1.02       0.0    Yes
  2657532              JUNCTION             -0.86      3.24       0.0    Yes
  2657533              JUNCTION             -0.44      2.97       0.0    Yes
  2657534              JUNCTION             -0.23      2.88       0.0    Yes
  2657535              JUNCTION             -0.20      2.65       0.0    Yes
  2657536              JUNCTION              1.17      1.52       0.0    Yes
  2657537              JUNCTION              0.99      1.52       0.0    Yes
  2657538              JUNCTION              1.17      1.16       0.0    Yes
  2657539              JUNCTION              0.81      1.47       0.0    Yes
  2657540              JUNCTION              0.71      1.81       0.0    Yes
  2657541              JUNCTION              1.00      1.50       0.0    Yes
  2657542              JUNCTION             -0.04      1.94       0.0    Yes
  2657543              JUNCTION              0.50      1.97       0.0    Yes
  2657544              JUNCTION             -0.60      2.99       0.0    Yes
  2657545              JUNCTION             -0.21      2.71       0.0    Yes
  2657546              JUNCTION              0.60      1.55       0.0    Yes
  2657547              JUNCTION              0.50      1.81       0.0    Yes
  2657548              JUNCTION              0.34      2.20       0.0    Yes
  2657549              JUNCTION              0.78      1.61       0.0    Yes
  2657550              JUNCTION             -0.05      2.34       0.0    Yes
  2657551              JUNCTION              0.59      1.74       0.0    Yes
  2657552              JUNCTION              0.15      2.03       0.0    Yes
  2657553              JUNCTION              0.74      1.72       0.0    Yes
  2657554              JUNCTION              0.97      1.48       0.0    Yes
  2657555              JUNCTION              1.37      1.19       0.0    Yes
  2657556              JUNCTION              0.04      2.30       0.0    Yes
  2657557              JUNCTION              0.94      1.36       0.0    Yes
  2657558              JUNCTION              0.50      1.84       0.0    Yes
  2657559              JUNCTION              0.36      2.05       0.0    Yes
  2657560              JUNCTION             -0.11      2.56       0.0    Yes
  2657561              JUNCTION             -0.64      3.24       0.0    Yes
  2657562              JUNCTION             -0.54      2.84       0.0    Yes
  2657563              JUNCTION              0.18      2.39       0.0    Yes
  2657564              JUNCTION              0.96      1.47       0.0    Yes
  2657565              JUNCTION             -1.92      4.27       0.0    Yes
  2657566              JUNCTION              0.15      2.28       0.0    Yes
  2657567              JUNCTION              0.70      1.71       0.0    Yes
  2657568              JUNCTION              0.89      1.51       0.0    Yes
  2657569              JUNCTION             -1.42      3.80       0.0    Yes
  2657570              JUNCTION             -0.43      2.88       0.0    Yes
  2657571              JUNCTION              0.14      2.19       0.0    Yes
  2657572              JUNCTION              0.34      1.99       0.0    Yes
  2657573              JUNCTION              0.88      1.57       0.0    Yes
  2657574              JUNCTION             -1.25      3.52       0.0    Yes
  2657575              JUNCTION             -0.98      3.25       0.0
  2657576              JUNCTION             -1.02      3.41       0.0    Yes
  2657577              JUNCTION             -0.47      2.79       0.0    Yes
  2657578              JUNCTION             -0.11      2.70       0.0    Yes
  2657579              JUNCTION             -0.27      2.78       0.0    Yes
  2657580              JUNCTION             -0.68      3.32       0.0    Yes
  2657581              JUNCTION              0.41      1.88       0.0
  2657582              JUNCTION             -0.13      2.59       0.0    Yes
  2657583              JUNCTION              0.82      1.65       0.0    Yes
  2657584              JUNCTION             -0.40      2.73       0.0    Yes
  2657585              JUNCTION              0.51      1.82       0.0    Yes
  2657586              JUNCTION              0.08      2.37       0.0    Yes
  2657587              JUNCTION              1.16      1.27       0.0    Yes
  2657588              JUNCTION              0.37      1.74       0.0
  2657589              JUNCTION              1.06      1.44       0.0    Yes
  2657590              JUNCTION              0.50      1.82       0.0    Yes
  2657591              JUNCTION              1.17      1.19       0.0    Yes
  2657592              JUNCTION              0.71      1.45       0.0
  2657593              JUNCTION              1.16      1.40       0.0    Yes
  2657594              JUNCTION             -0.92      3.33       0.0    Yes
  2657595              JUNCTION             -0.68      3.12       0.0    Yes
  2657596              JUNCTION              1.00      1.36       0.0    Yes
  2657597              JUNCTION              0.80      1.67       0.0    Yes
  2657598              JUNCTION              0.61      1.94       0.0    Yes
  2657599              JUNCTION             -0.10      2.52       0.0    Yes
  2657600              JUNCTION             -2.80      5.11       0.0
  2657601              JUNCTION             -0.06      2.42       0.0    Yes
  2657602              JUNCTION              0.44      2.11       0.0    Yes
  2657603              JUNCTION              0.55      2.04       0.0    Yes
  2657604              JUNCTION              1.06      1.67       0.0    Yes
  2657605              JUNCTION              1.10      1.39       0.0    Yes
  2657606              JUNCTION              0.31      2.02       0.0    Yes
  2657607              JUNCTION             -0.22      2.65       0.0    Yes
  2657608              JUNCTION             -0.38      2.68       0.0    Yes
  2657609              JUNCTION             -0.61      2.93       0.0    Yes
  2657610              JUNCTION             -1.03      3.36       0.0    Yes
  2657611              JUNCTION             -0.44      2.78       0.0    Yes
  2657612              JUNCTION              1.02      1.34       0.0    Yes
  2657613              JUNCTION              0.30      2.05       0.0    Yes
  2657614              JUNCTION              0.74      1.77       0.0    Yes
  2657615              JUNCTION             -0.47      2.97       0.0    Yes
  2657616              JUNCTION              0.12      2.28       0.0    Yes
  2657617              JUNCTION              0.77      1.65       0.0    Yes
  2657618              JUNCTION             -0.21      2.56       0.0    Yes
  2657619              JUNCTION              0.38      2.41       0.0    Yes
  2657620              JUNCTION              1.23      1.27       0.0    Yes
  2657621              JUNCTION              0.08      2.80       0.0    Yes
  2657622              JUNCTION             -0.63      3.63       0.0    Yes
  2657623              JUNCTION              1.24      2.51       0.0    Yes
  2657624              JUNCTION              0.94      2.40       0.0    Yes
  2657625              JUNCTION              1.03      2.14       0.0    Yes
  2657626              JUNCTION              1.89      1.41       0.0    Yes
  2657627              JUNCTION              0.82      2.19       0.0    Yes
  2657628              JUNCTION              0.50      2.51       0.0    Yes
  2657629              JUNCTION              1.98      1.22       0.0    Yes
  2657630              JUNCTION              1.51      2.14       0.0    Yes
  2657631              JUNCTION              1.30      2.05       0.0    Yes
  2657632              JUNCTION              1.67      1.94       0.0
  2657633              JUNCTION              1.78      1.86       0.0    Yes
  2657634              JUNCTION              2.04      1.81       0.0    Yes
  2657635              JUNCTION              2.40      1.35       0.0    Yes
  2657636              JUNCTION              2.28      1.52       0.0    Yes
  2657637              JUNCTION              1.55      2.11       0.0    Yes
  2657638              JUNCTION              1.36      2.22       0.0    Yes
  2657639              JUNCTION              0.99      2.29       0.0    Yes
  2657640              JUNCTION              2.70      1.12       0.0    Yes
  2657641              JUNCTION              2.51      0.94       0.0    Yes
  2657642              JUNCTION              0.64      2.41       0.0    Yes
  2657643              JUNCTION              0.52      2.58       0.0    Yes
  2657644              JUNCTION              2.31      1.55       0.0    Yes
  2657645              JUNCTION              1.41      1.99       0.0    Yes
  2657646              JUNCTION              1.02      2.26       0.0    Yes
  2657647              JUNCTION              0.64      2.72       0.0    Yes
  2657648              JUNCTION              0.45      2.66       0.0    Yes
  2657649              JUNCTION              0.25      2.89       0.0    Yes
  2657650              JUNCTION             -0.35      3.28       0.0    Yes
  2657651              JUNCTION              0.09      3.03       0.0    Yes
  2657652              JUNCTION             -0.62      3.47       0.0    Yes
  2657653              JUNCTION             -0.75      3.85       0.0    Yes
  2657654              JUNCTION             -0.92      3.70       0.0    Yes
  2657655              JUNCTION             -0.78      3.58       0.0    Yes
  2657656              JUNCTION             -0.37      3.50       0.0    Yes
  2657657              JUNCTION              0.01      3.15       0.0    Yes
  2657658              JUNCTION              0.35      2.83       0.0    Yes
  2657659              JUNCTION              1.24      2.16       0.0
  2657660              JUNCTION              2.22      1.50       0.0    Yes
  2657661              JUNCTION              2.05      1.55       0.0    Yes
  2657662              JUNCTION              1.81      1.85       0.0    Yes
  2657663              JUNCTION              2.30      1.38       0.0    Yes
  2657664              JUNCTION              2.57      1.02       0.0    Yes
  2657665              JUNCTION              2.11      1.54       0.0    Yes
  2657666              JUNCTION              1.86      1.49       0.0    Yes
  2657667              JUNCTION              0.45      2.63       0.0
  2657668              JUNCTION              0.05      2.35       0.0    Yes
  2657669              JUNCTION              0.29      2.61       0.0    Yes
  2657670              JUNCTION              0.36      2.48       0.0    Yes
  2657671              JUNCTION              2.11      2.03       0.0    Yes
  2657672              JUNCTION              1.69      2.45       0.0    Yes
  2657673              JUNCTION              0.82      2.83       0.0    Yes
  2657674              JUNCTION              0.66      2.73       0.0    Yes
  2657675              JUNCTION              1.95      1.09       0.0    Yes
  2657676              JUNCTION              1.56      1.02       0.0    Yes
  2657677              JUNCTION             -0.72      3.08       0.0    Yes
  2657678              JUNCTION             -0.60      2.87       0.0    Yes
  2657679              JUNCTION             -0.35      2.68       0.0    Yes
  2657680              JUNCTION              1.08      1.12       0.0    Yes
  2657681              JUNCTION             -0.62      2.95       0.0    Yes
  2657682              JUNCTION             -0.78      3.08       0.0    Yes
  2657683              JUNCTION             -1.03      3.29       0.0    Yes
  2657684              JUNCTION             -1.49      4.15       0.0    Yes
  2657685              JUNCTION             -1.21      3.99       0.0    Yes
  2657686              JUNCTION             -1.09      3.76       0.0    Yes
  2657687              JUNCTION              1.48      2.05       0.0
  2657688              JUNCTION              1.67      1.57       0.0
  2657690              JUNCTION              1.85      1.73       0.0
  2657691              JUNCTION              2.00      1.30       0.0    Yes
  2657692              JUNCTION              2.20      1.05       0.0    Yes
  2657693              JUNCTION              1.58      1.74       0.0
  2657694              JUNCTION              1.40      1.80       0.0    Yes
  2657695              JUNCTION              2.55      1.32       0.0    Yes
  2657696              JUNCTION             -0.02      2.49       0.0    Yes
  2657697              JUNCTION             -0.77      3.97       0.0    Yes
  2657698              JUNCTION             -0.92      4.06       0.0    Yes
  2657699              JUNCTION             -1.51      3.88       0.0    Yes
  2657700              JUNCTION             -0.81      3.98       0.0
  2657701              JUNCTION             -0.75      3.94       0.0
  2657702              JUNCTION              0.92      2.24       0.0
  2657703              JUNCTION              0.81      1.69       0.0    Yes
  2657704              JUNCTION              0.01      2.91       0.0    Yes
  2657705              JUNCTION             -0.51      4.72       0.0    Yes
  2657706              JUNCTION              0.28      2.60       0.0
  2657707              JUNCTION              0.45      2.63       0.0
  2657709              JUNCTION              0.76      2.14       0.0    Yes
  2657710              JUNCTION              1.43      1.64       0.0    Yes
  2657711              JUNCTION              0.71      2.21       0.0    Yes
  2657712              JUNCTION              0.96      1.99       0.0    Yes
  2657713              JUNCTION             -0.30      3.32       0.0
  2657714              JUNCTION              0.79      2.11       0.0    Yes
  2657715              JUNCTION              1.29      1.64       0.0    Yes
  2657716              JUNCTION             -2.05      4.35       0.0
  2657717              JUNCTION             -2.23      4.43       0.0
  2657718              JUNCTION             -1.77      4.19       0.0    Yes
  2657719              JUNCTION             -1.60      4.01       0.0    Yes
  2657720              JUNCTION             -1.52      3.83       0.0
  2657721              JUNCTION             -1.42      3.76       0.0
  2657722              JUNCTION             -0.80      3.49       0.0    Yes
  2657723              JUNCTION             -2.03      4.45       0.0    Yes
  2657724              JUNCTION             -2.25      4.62       0.0
  2657725              JUNCTION             -2.61      5.21       0.0
  2657726              JUNCTION             -2.55      5.02       0.0
  2657727              JUNCTION             -2.49      4.64       0.0    Yes
  2657728              JUNCTION             -2.43      4.59       0.0    Yes
  2657729              JUNCTION             -2.33      4.49       0.0    Yes
  2657730              JUNCTION             -1.66      3.89       0.0
  2657731              JUNCTION             -1.40      3.66       0.0
  2657732              JUNCTION             -1.21      3.50       0.0
  2657733              JUNCTION             -1.00      3.18       0.0
  2657734              JUNCTION             -0.03      2.36       0.0    Yes
  2657738              JUNCTION              0.83      2.25       0.0
  2657739              JUNCTION              1.17      1.99       0.0
  2657740              JUNCTION              1.18      2.00       0.0    Yes
  2657741              JUNCTION              1.84      1.16       0.0
  2657742              JUNCTION              1.81      1.74       0.0
  2657743              JUNCTION             -1.17      3.50       0.0
  2657744              JUNCTION             -0.94      3.51       0.0    Yes
  2657745              JUNCTION             -0.75      3.04       0.0
  2657746              JUNCTION             -0.64      3.00       0.0
  2657747              JUNCTION             -0.52      2.62       0.0    Yes
  2657748              JUNCTION             -0.46      2.56       0.0
  2657749              JUNCTION             -0.30      1.98       0.0
  2657750              JUNCTION             -0.16      2.45       0.0    Yes
  2657751              JUNCTION              0.59      1.79       0.0
  2657752              JUNCTION             -0.60      3.08       0.0    Yes
  2657753              JUNCTION             -0.29      2.63       0.0    Yes
  2657754              JUNCTION             -0.18      2.54       0.0    Yes
  2657755              JUNCTION              0.88      1.66       0.0
  2657756              JUNCTION              1.04      1.26       0.0
  2657757              JUNCTION             -1.67      3.46       0.0    Yes
  2657758              JUNCTION             -1.51      3.82       0.0    Yes
  2657759              JUNCTION             -1.25      3.35       0.0    Yes
  2657760              JUNCTION             -0.99      2.96       0.0    Yes
  2657761              JUNCTION             -0.80      2.90       0.0    Yes
  2657762              JUNCTION             -0.62      3.20       0.0    Yes
  2657763              JUNCTION             -0.37      3.42       0.0    Yes
  2657764              JUNCTION             -0.11      3.40       0.0
  2657765              JUNCTION              0.04      3.29       0.0
  2657766              JUNCTION              0.20      3.16       0.0
  2657767              JUNCTION              0.94      2.39       0.0    Yes
  2657769              JUNCTION             -1.34      5.13       0.0
  2657770              JUNCTION             -1.05      4.96       0.0
  2657771              JUNCTION             -0.79      4.80       0.0    Yes
  2657772              JUNCTION             -0.09      3.59       0.0
  2657773              JUNCTION             -0.27      3.94       0.0    Yes
  2657774              JUNCTION             -0.38      3.81       0.0
  2657775              JUNCTION             -0.49      4.36       0.0    Yes
  2657776              JUNCTION             -0.60      4.49       0.0    Yes
  2657777              JUNCTION             -0.71      4.53       0.0
  2657778              JUNCTION             -1.35      5.19       0.0
  2657779              JUNCTION             -1.17      4.60       0.0    Yes
  2657780              JUNCTION              1.29      2.01       0.0    Yes
  2657781              JUNCTION              1.06      2.35       0.0    Yes
  2657782              JUNCTION              0.71      2.65       0.0    Yes
  2657783              JUNCTION              0.31      3.61       0.0    Yes
  2657784              JUNCTION              0.19      3.37       0.0    Yes
  2657785              JUNCTION              0.10      3.51       0.0    Yes
  2657786              JUNCTION              1.42      1.81       0.0    Yes
  2657787              JUNCTION              1.56      2.02       0.0    Yes
  2657788              JUNCTION             -1.76      4.34       0.0    Yes
  2657789              JUNCTION             -1.60      4.03       0.0    Yes
  2657790              JUNCTION             -1.48      3.86       0.0
  2657791              JUNCTION             -1.38      3.58       0.0    Yes
  2657792              JUNCTION             -1.09      3.44       0.0    Yes
  2657793              JUNCTION             -1.00      3.30       0.0
  2657794              JUNCTION              1.29      1.06       0.0
  2657795              JUNCTION             -2.57      4.52       0.0    Yes
  2657796              JUNCTION             -2.42      4.49       0.0
  2657797              JUNCTION             -2.31      4.28       0.0    Yes
  2657798              JUNCTION             -2.44      4.34       0.0    Yes
  2657799              JUNCTION             -2.26      4.21       0.0    Yes
  2657800              JUNCTION             -2.12      4.05       0.0    Yes
  2657801              JUNCTION              0.75      1.89       0.0    Yes
  2657802              JUNCTION              0.98      1.45       0.0
  2657803              JUNCTION              0.50      2.20       0.0
  2657804              JUNCTION              0.20      2.41       0.0    Yes
  2657805              JUNCTION             -0.06      2.91       0.0    Yes
  2657806              JUNCTION             -0.40      2.86       0.0
  2657807              JUNCTION             -0.50      2.90       0.0    Yes
  2657808              JUNCTION             -0.79      3.08       0.0
  2657809              JUNCTION             -1.32      3.61       0.0    Yes
  2657810              JUNCTION             -1.78      3.88       0.0    Yes
  2657811              JUNCTION              0.05      2.00       0.0    Yes
  2657812              JUNCTION              0.40      1.93       0.0    Yes
  2657813              JUNCTION             -2.19      4.50       0.0
  2657814              JUNCTION             -2.03      4.29       0.0    Yes
  2657815              JUNCTION             -1.85      3.81       0.0    Yes
  2657816              JUNCTION             -1.78      3.76       0.0    Yes
  2657817              JUNCTION             -1.51      3.87       0.0    Yes
  2657818              JUNCTION             -1.17      3.30       0.0    Yes
  2657819              JUNCTION             -0.64      2.90       0.0    Yes
  2657820              JUNCTION             -0.32      2.67       0.0
  2657821              JUNCTION             -1.14      3.70       0.0
  2657822              JUNCTION              1.93      1.41       0.0    Yes
  2657823              JUNCTION              1.67      1.41       0.0
  2657824              JUNCTION              1.23      1.62       0.0    Yes
  2657825              JUNCTION              0.88      2.36       0.0    Yes
  2657826              JUNCTION              0.22      2.48       0.0    Yes
  2657827              JUNCTION              0.00      2.53       0.0    Yes
  2657828              JUNCTION              1.67      1.48       0.0
  2657829              JUNCTION              1.36      1.67       0.0
  2657830              JUNCTION              0.44      2.19       0.0    Yes
  2657831              JUNCTION              1.11      1.46       0.0    Yes
  2657832              JUNCTION              1.08      1.44       0.0    Yes
  2657833              JUNCTION             -0.27      2.80       0.0    Yes
  2657834              JUNCTION             -0.08      2.16       0.0
  2657835              JUNCTION              0.43      1.98       0.0    Yes
  2657836              JUNCTION              0.98      1.64       0.0    Yes
  2657837              JUNCTION              1.41      1.51       0.0
  2657838              JUNCTION             -0.56      3.12       0.0    Yes
  2657839              JUNCTION              0.69      1.72       0.0    Yes
  2657840              JUNCTION              0.45      2.11       0.0    Yes
  2657841              JUNCTION             -0.23      2.57       0.0    Yes
  2657842              JUNCTION             -1.34      3.48       0.0
  2657843              JUNCTION             -1.09      3.41       0.0    Yes
  2657844              JUNCTION              0.95      1.51       0.0    Yes
  2657845              JUNCTION              0.98      1.42       0.0    Yes
  2657846              JUNCTION              0.57      1.80       0.0    Yes
  2657847              JUNCTION              0.07      2.35       0.0    Yes
  2657848              JUNCTION             -1.50      3.52       0.0    Yes
  2657849              JUNCTION              0.93      1.41       0.0    Yes
  2657850              JUNCTION              0.65      1.89       0.0    Yes
  2657851              JUNCTION              0.26      1.74       0.0    Yes
  2657852              JUNCTION             -0.04      2.05       0.0    Yes
  2657853              JUNCTION             -0.37      2.48       0.0    Yes
  2657854              JUNCTION             -0.85      2.91       0.0    Yes
  2657855              JUNCTION              0.54      1.22       0.0    Yes
  2657856              JUNCTION              0.59      1.45       0.0    Yes
  2657857              JUNCTION              0.32      1.94       0.0
  2657858              JUNCTION              0.71      0.90       0.0    Yes
  2657859              JUNCTION              0.92      1.35       0.0    Yes
  2657860              JUNCTION             -0.03      2.37       0.0    Yes
  2657861              JUNCTION              0.07      2.16       0.0
  2657862              JUNCTION             -0.43      2.72       0.0    Yes
  2657863              JUNCTION              0.80      1.40       0.0    Yes
  2657864              JUNCTION              1.20      1.38       0.0    Yes
  2657865              JUNCTION              1.10      1.50       0.0    Yes
  2657866              JUNCTION              0.49      2.39       0.0    Yes
  2657867              JUNCTION              0.30      2.23       0.0    Yes
  2657868              JUNCTION              0.14      2.15       0.0
  2657869              JUNCTION              0.19      2.19       0.0    Yes
  2657870              JUNCTION              0.90      1.46       0.0    Yes
  2657871              JUNCTION              0.35      1.65       0.0    Yes
  2657872              JUNCTION              0.83      1.28       0.0    Yes
  2657873              JUNCTION             -0.30      2.85       0.0    Yes
  2657874              JUNCTION              1.03      1.57       0.0    Yes
  2657875              JUNCTION              0.26      2.44       0.0    Yes
  2657876              JUNCTION             -0.72      2.98       0.0    Yes
  2657877              JUNCTION             -0.32      2.47       0.0    Yes
  2657878              JUNCTION              0.78      1.24       0.0    Yes
  2657879              JUNCTION             -1.76      4.25       0.0    Yes
  2657880              JUNCTION             -1.14      3.60       0.0    Yes
  2657881              JUNCTION              0.04      2.52       0.0    Yes
  2657882              JUNCTION              0.41      1.59       0.0    Yes
  2657883              JUNCTION             -0.18      2.28       0.0    Yes
  2657884              JUNCTION             -0.59      2.69       0.0    Yes
  2657885              JUNCTION              1.18      1.32       0.0    Yes
  2657886              JUNCTION             -0.03      2.20       0.0    Yes
  2657887              JUNCTION             -0.96      3.25       0.0    Yes
  2657888              JUNCTION             -0.75      2.95       0.0
  2657889              JUNCTION             -1.26      3.41       0.0    Yes
  2657890              JUNCTION             -0.06      2.51       0.0    Yes
  2657891              JUNCTION              0.70      1.50       0.0    Yes
  2657892              JUNCTION             -0.37      3.12       0.0    Yes
  2657893              JUNCTION             -1.79      4.05       0.0    Yes
  2657894              JUNCTION             -1.66      3.96       0.0    Yes
  2657895              JUNCTION              0.38      2.27       0.0    Yes
  2657896              JUNCTION              1.05      1.71       0.0    Yes
  2657897              JUNCTION              0.13      2.57       0.0    Yes
  2657898              JUNCTION             -0.07      2.68       0.0    Yes
  2657899              JUNCTION              1.05      1.83       0.0    Yes
  2657900              JUNCTION             -0.02      1.82       0.0    Yes
  2657901              JUNCTION              1.01      1.14       0.0    Yes
  2657902              JUNCTION             -0.60      2.50       0.0    Yes
  2657903              JUNCTION             -0.91      3.43       0.0    Yes
  2657904              JUNCTION             -0.45      2.87       0.0
  2657905              JUNCTION             -0.37      2.39       0.0    Yes
  2657906              JUNCTION              0.25      2.42       0.0    Yes
  2657907              JUNCTION              1.00      1.90       0.0    Yes
  2657908              JUNCTION              0.50      1.88       0.0    Yes
  2657909              JUNCTION             -0.01      2.21       0.0    Yes
  2657910              JUNCTION             -0.53      3.01       0.0    Yes
  2657911              JUNCTION             -1.00      3.16       0.0    Yes
  2657912              JUNCTION             -0.94      3.14       0.0    Yes
  2657913              JUNCTION             -0.45      2.37       0.0    Yes
  2657914              JUNCTION              0.93      1.17       0.0    Yes
  2657915              JUNCTION              0.00      1.93       0.0    Yes
  2657916              JUNCTION             -0.59      2.23       0.0    Yes
  2657917              JUNCTION              0.94      1.86       0.0    Yes
  2657918              JUNCTION              0.64      1.92       0.0    Yes
  2657919              JUNCTION              0.34      2.10       0.0
  2657920              JUNCTION             -0.14      2.65       0.0    Yes
  2657921              JUNCTION             -0.33      2.78       0.0    Yes
  2657922              JUNCTION             -0.67      3.17       0.0    Yes
  2657923              JUNCTION              0.89      1.71       0.0    Yes
  2657924              JUNCTION              0.34      2.08       0.0    Yes
  2657925              JUNCTION             -0.07      2.55       0.0    Yes
  2657926              JUNCTION             -0.15      2.63       0.0    Yes
  2657927              JUNCTION             -0.45      3.05       0.0    Yes
  2657928              JUNCTION             -0.71      3.12       0.0    Yes
  2657929              JUNCTION             -0.91      3.25       0.0    Yes
  2657930              JUNCTION              0.94      1.45       0.0    Yes
  2657931              JUNCTION             -1.24      3.67       0.0
  2657932              JUNCTION             -1.04      3.59       0.0    Yes
  2657933              JUNCTION             -0.68      3.17       0.0    Yes
  2657934              JUNCTION             -0.28      2.71       0.0    Yes
  2657935              JUNCTION             -0.61      3.14       0.0    Yes
  2657936              JUNCTION             -0.91      3.24       0.0    Yes
  2657937              JUNCTION              0.95      1.54       0.0
  2657938              JUNCTION             -0.00      2.50       0.0    Yes
  2657939              JUNCTION              0.58      1.78       0.0    Yes
  2657940              JUNCTION              0.39      2.09       0.0    Yes
  2657941              JUNCTION              1.01      2.06       0.0
  2657942              JUNCTION              1.76      1.30       0.0
  2657943              JUNCTION              1.17      1.43       0.0    Yes
  2657944              JUNCTION              1.47      1.43       0.0    Yes
  2657945              JUNCTION              0.60      1.97       0.0    Yes
  2657946              JUNCTION              0.37      2.23       0.0    Yes
  2657947              JUNCTION             -0.01      2.68       0.0    Yes
  2657948              JUNCTION              0.64      2.10       0.0    Yes
  2657949              JUNCTION              1.42      1.33       0.0    Yes
  2657950              JUNCTION              1.99      1.79       0.0    Yes
  2657951              JUNCTION              1.22      1.85       0.0    Yes
  2657952              JUNCTION              1.10      1.95       0.0    Yes
  2657953              JUNCTION              0.94      1.99       0.0
  2657954              JUNCTION              1.40      1.62       0.0
  2657955              JUNCTION              0.89      2.19       0.0    Yes
  2657956              JUNCTION              0.40      2.96       0.0    Yes
  2657957              JUNCTION              0.17      3.07       0.0    Yes
  2657958              JUNCTION              1.70      1.53       0.0    Yes
  2657959              JUNCTION              1.94      1.36       0.0    Yes
  2657960              JUNCTION             -0.20      3.26       0.0    Yes
  2657961              JUNCTION              0.54      2.46       0.0    Yes
  2657962              JUNCTION              1.06      2.17       0.0    Yes
  2657963              JUNCTION              0.81      2.19       0.0    Yes
  2657964              JUNCTION              1.51      1.84       0.0    Yes
  2657965              JUNCTION              1.71      1.61       0.0
  2657966              JUNCTION              1.41      2.22       0.0    Yes
  2657967              JUNCTION              1.00      2.73       0.0    Yes
  2657968              JUNCTION              1.74      1.61       0.0    Yes
  2657969              JUNCTION              2.24      1.47       0.0    Yes
  2657970              JUNCTION              1.69      2.51       0.0
  2657971              JUNCTION              1.12      2.28       0.0    Yes
  2657972              JUNCTION              2.53      1.45       0.0    Yes
  2657973              JUNCTION              2.16      1.54       0.0    Yes
  2657974              JUNCTION              1.88      1.64       0.0
  2657975              JUNCTION              2.55      1.29       0.0    Yes
  2657976              JUNCTION              2.15      1.42       0.0
  2657977              JUNCTION              1.60      1.63       0.0    Yes
  2657978              JUNCTION              0.63      2.65       0.0    Yes
  2657979              JUNCTION              0.09      3.14       0.0    Yes
  2657980              JUNCTION              0.23      2.67       0.0    Yes
  2657981              JUNCTION              0.50      2.50       0.0    Yes
  2657982              JUNCTION              0.72      2.35       0.0
  2657983              JUNCTION              1.15      1.65       0.0    Yes
  2657984              JUNCTION             -0.54      3.58       0.0    Yes
  2657985              JUNCTION             -0.86      3.39       0.0
  2657986              JUNCTION             -1.00      3.56       0.0    Yes
  2657987              JUNCTION              1.45      1.48       0.0    Yes
  2657988              JUNCTION              1.06      2.06       0.0    Yes
  2657989              JUNCTION              1.57      1.43       0.0    Yes
  2657990              JUNCTION              0.52      1.78       0.0    Yes
  2657991              JUNCTION              1.06      1.41       0.0    Yes
  2657992              JUNCTION              0.17      2.15       0.0    Yes
  2657993              JUNCTION              0.76      2.18       0.0    Yes
  2657994              JUNCTION              0.50      2.32       0.0    Yes
  2657995              JUNCTION              1.75      1.04       0.0    Yes
  2657996              JUNCTION              1.77      1.21       0.0    Yes
  2657997              JUNCTION              0.29      2.58       0.0    Yes
  2657998              JUNCTION             -0.23      2.74       0.0    Yes
  2657999              JUNCTION             -0.56      2.97       0.0    Yes
  2658000              JUNCTION              1.52      1.36       0.0    Yes
  2658001              JUNCTION              0.49      2.23       0.0    Yes
  2658002              JUNCTION              1.25      1.10       0.0    Yes
  2658003              JUNCTION              1.40      1.66       0.0    Yes
  2658004              JUNCTION              1.68      1.14       0.0    Yes
  2658005              JUNCTION              1.22      1.93       0.0    Yes
  2658006              JUNCTION              0.86      2.08       0.0    Yes
  2658007              JUNCTION              0.53      2.12       0.0    Yes
  2658008              JUNCTION              1.17      1.12       0.0    Yes
  2658009              JUNCTION              0.37      1.85       0.0    Yes
  2658010              JUNCTION              0.84      1.87       0.0    Yes
  2658011              JUNCTION             -0.30      2.85       0.0    Yes
  2658012              JUNCTION             -0.08      2.99       0.0
  2658013              JUNCTION              0.09      2.85       0.0    Yes
  2658014              JUNCTION              1.14      1.43       0.0    Yes
  2658015              JUNCTION              0.36      2.41       0.0
  2658016              JUNCTION              0.48      2.28       0.0    Yes
  2658017              JUNCTION              0.78      2.63       0.0    Yes
  2658018              JUNCTION             -0.76      3.22       0.0    Yes
  2658019              JUNCTION             -0.86      3.26       0.0    Yes
  2658020              JUNCTION              1.63      1.36       0.0    Yes
  2658021              JUNCTION              2.24      1.36       0.0    Yes
  2658022              JUNCTION              2.06      1.54       0.0
  2658023              JUNCTION              1.38      2.30       0.0    Yes
  2658024              JUNCTION              1.15      2.10       0.0    Yes
  2658025              JUNCTION              0.92      2.45       0.0    Yes
  2658026              JUNCTION              2.13      1.47       0.0    Yes
  2658027              JUNCTION              1.68      1.74       0.0    Yes
  2658028              JUNCTION              1.94      1.80       0.0
  2658029              JUNCTION              2.21      1.23       0.0    Yes
  2658030              JUNCTION              2.22      1.50       0.0    Yes
  2658031              JUNCTION              1.96      1.84       0.0    Yes
  2658032              JUNCTION              1.70      1.92       0.0    Yes
  2658033              JUNCTION              1.63      2.09       0.0    Yes
  2658034              JUNCTION              1.75      1.35       0.0    Yes
  2658035              JUNCTION              1.05      1.62       0.0
  2658036              JUNCTION              1.74      1.06       0.0    Yes
  2658037              JUNCTION             -0.24      2.99       0.0    Yes
  2658038              JUNCTION             -0.46      3.13       0.0    Yes
  2658039              JUNCTION              1.28      1.30       0.0    Yes
  2658040              JUNCTION              1.48      1.87       0.0    Yes
  2658041              JUNCTION              0.95      2.29       0.0    Yes
  2658042              JUNCTION              1.08      2.18       0.0    Yes
  2658043              JUNCTION              0.62      2.43       0.0    Yes
  2658044              JUNCTION              1.73      1.42       0.0    Yes
  2658045              JUNCTION              1.49      1.65       0.0    Yes
  2658046              JUNCTION              1.14      2.21       0.0    Yes
  2658047              JUNCTION              1.06      2.29       0.0    Yes
  2658048              JUNCTION              1.89      1.37       0.0    Yes
  2658049              JUNCTION              0.11      2.72       0.0    Yes
  2658050              JUNCTION             -0.14      2.86       0.0    Yes
  2658051              JUNCTION              2.03      1.77       0.0    Yes
  2658052              JUNCTION              1.77      1.41       0.0    Yes
  2658053              JUNCTION              1.35      1.66       0.0    Yes
  2658054              JUNCTION              1.17      1.83       0.0    Yes
  2658055              JUNCTION              0.78      2.11       0.0
  2658056              JUNCTION              2.18      1.79       0.0    Yes
  2658057              JUNCTION              2.05      1.95       0.0    Yes
  2658058              JUNCTION              1.88      2.09       0.0    Yes
  2658059              JUNCTION              1.43      2.70       0.0    Yes
  2658060              JUNCTION              1.15      2.35       0.0    Yes
  2658061              JUNCTION              0.93      2.25       0.0    Yes
  2658062              JUNCTION              2.40      1.97       0.0    Yes
  2658063              JUNCTION              1.73      2.64       0.0    Yes
  2658064              JUNCTION              2.07      1.84       0.0    Yes
  2658065              JUNCTION              1.90      1.87       0.0
  2658066              JUNCTION              1.68      2.17       0.0    Yes
  2658067              JUNCTION              1.13      2.14       0.0    Yes
  2658068              JUNCTION              1.37      2.33       0.0    Yes
  2658069              JUNCTION              1.00      2.09       0.0    Yes
  2658070              JUNCTION              1.91      1.47       0.0    Yes
  2658071              JUNCTION              0.72      2.68       0.0    Yes
  2658072              JUNCTION              1.94      1.54       0.0    Yes
  2658073              JUNCTION              1.18      2.25       0.0    Yes
  2658074              JUNCTION              2.14      1.34       0.0    Yes
  2658075              JUNCTION              1.89      1.37       0.0    Yes
  2658076              JUNCTION              1.62      1.68       0.0    Yes
  2658077              JUNCTION              1.34      2.20       0.0    Yes
  2658078              JUNCTION              1.19      2.41       0.0    Yes
  2658079              JUNCTION              0.77      2.76       0.0    Yes
  2658080              JUNCTION              0.26      3.09       0.0    Yes
  2658081              JUNCTION              0.54      3.42       0.0    Yes
  2658082              JUNCTION              0.65      3.20       0.0    Yes
  2658083              JUNCTION              1.11      2.41       0.0    Yes
  2658084              JUNCTION              1.21      2.37       0.0    Yes
  2658085              JUNCTION              1.46      2.57       0.0    Yes
  2658086              JUNCTION              2.06      1.84       0.0    Yes
  2658087              JUNCTION              2.20      1.62       0.0    Yes
  2658088              JUNCTION              2.48      1.38       0.0    Yes
  2658089              JUNCTION              1.60      2.17       0.0    Yes
  2658090              JUNCTION              2.25      1.61       0.0    Yes
  2658091              JUNCTION              1.98      1.87       0.0    Yes
  2658092              JUNCTION              0.60      2.65       0.0    Yes
  2658093              JUNCTION              0.68      2.65       0.0    Yes
  2658094              JUNCTION              0.06      3.71       0.0    Yes
  2658095              JUNCTION              1.75      1.85       0.0    Yes
  2658096              JUNCTION              2.17      1.57       0.0    Yes
  2658097              JUNCTION              0.18      3.49       0.0
  2658098              JUNCTION              1.96      1.86       0.0    Yes
  2658099              JUNCTION              2.20      1.57       0.0    Yes
  2658100              JUNCTION             -0.11      3.69       0.0
  2658101              JUNCTION              1.77      1.85       0.0    Yes
  2658102              JUNCTION              1.47      2.45       0.0    Yes
  2658103              JUNCTION              1.33      2.67       0.0    Yes
  2658104              JUNCTION              0.83      2.88       0.0    Yes
  2658105              JUNCTION              0.60      2.91       0.0
  2658106              JUNCTION              1.03      2.59       0.0    Yes
  2658107              JUNCTION              1.98      1.11       0.0    Yes
  2658108              JUNCTION             -0.42      4.00       0.0
  2658109              JUNCTION              0.28      3.42       0.0    Yes
  2658110              JUNCTION              0.07      3.64       0.0    Yes
  2658111              JUNCTION              1.93      1.69       0.0    Yes
  2658112              JUNCTION             -0.44      3.96       0.0    Yes
  2658113              JUNCTION             -0.59      4.23       0.0    Yes
  2658114              JUNCTION             -0.76      4.47       0.0
  2658115              JUNCTION              1.36      2.19       0.0    Yes
  2658116              JUNCTION              1.42      2.17       0.0    Yes
  2658117              JUNCTION              2.28      1.73       0.0    Yes
  2658119              JUNCTION              1.49      0.93       0.0    Yes
  2658120              JUNCTION              1.22      1.37       0.0    Yes
  2658121              JUNCTION              0.81      1.97       0.0    Yes
  2658122              JUNCTION              0.36      2.41       0.0    Yes
  2658123              JUNCTION              0.21      2.66       0.0
  2658124              JUNCTION              1.01      2.94       0.0    Yes
  2658125              JUNCTION              0.23      3.35       0.0    Yes
  2658126              JUNCTION             -0.08      3.85       0.0    Yes
  2658127              JUNCTION              1.82      1.94       0.0    Yes
  2658128              JUNCTION              2.01      1.86       0.0    Yes
  2658129              JUNCTION              1.50      2.29       0.0    Yes
  2658130              JUNCTION              0.51      2.92       0.0    Yes
  2658131              JUNCTION              0.63      2.78       0.0
  2658132              JUNCTION              2.46      1.10       0.0    Yes
  2658133              JUNCTION              0.34      3.18       0.0    Yes
  2658134              JUNCTION              2.43      1.28       0.0    Yes
  2658135              JUNCTION              1.67      1.92       0.0    Yes
  2658136              JUNCTION              1.31      2.35       0.0    Yes
  2658137              JUNCTION              0.55      2.83       0.0    Yes
  2658138              JUNCTION              2.27      1.60       0.0    Yes
  2658139              JUNCTION              1.96      1.88       0.0    Yes
  2658140              JUNCTION              1.48      2.50       0.0    Yes
  2658141              JUNCTION              2.01      1.78       0.0
  2658142              JUNCTION              2.70      1.40       0.0    Yes
  2658143              JUNCTION              0.17      3.33       0.0    Yes
  2658144              JUNCTION              0.87      2.77       0.0    Yes
  2658145              JUNCTION              1.47      2.70       0.0    Yes
  2658146              JUNCTION              1.81      1.89       0.0    Yes
  2658147              JUNCTION              0.77      2.95       0.0    Yes
  2658148              JUNCTION              0.14      3.35       0.0    Yes
  2658149              JUNCTION             -0.40      4.19       0.0    Yes
  2658150              JUNCTION              2.32      1.56       0.0    Yes
  2658151              JUNCTION              2.18      1.80       0.0
  2658152              JUNCTION              2.05      1.59       0.0
  2658153              JUNCTION              1.75      1.90       0.0
  2658154              JUNCTION              2.75      1.33       0.0
  2658155              JUNCTION              1.71      1.97       0.0    Yes
  2658156              JUNCTION              1.29      2.45       0.0
  2658157              JUNCTION             -0.44      3.84       0.0    Yes
  2658158              JUNCTION              1.88      2.00       0.0    Yes
  2658159              JUNCTION              1.70      2.20       0.0    Yes
  2658160              JUNCTION              0.68      2.90       0.0    Yes
  2658161              JUNCTION              1.91      1.51       0.0    Yes
  2658162              JUNCTION              1.43      2.21       0.0
  2658163              JUNCTION              1.65      2.03       0.0    Yes
  2658164              JUNCTION              1.98      1.75       0.0    Yes
  2658165              JUNCTION              1.23      2.18       0.0    Yes
  2658166              JUNCTION              1.05      2.35       0.0    Yes
  2658167              JUNCTION              1.75      1.80       0.0    Yes
  2658168              JUNCTION              1.10      2.39       0.0    Yes
  2658169              JUNCTION              1.86      1.66       0.0
  2658170              JUNCTION              1.85      1.81       0.0
  2658171              JUNCTION              2.04      0.95       0.0
  2658172              JUNCTION              2.30      0.70       0.0
  2658173              JUNCTION              2.68      0.22       0.0
  2658174              JUNCTION              2.97      0.95       0.0
  2658175              JUNCTION              2.36      1.68       0.0
  2658176              JUNCTION              0.21      2.95       0.0
  2658177              JUNCTION              0.50      3.09       0.0
  2658178              JUNCTION              0.58      2.71       0.0    Yes
  2658179              JUNCTION              1.72      1.96       0.0
  2658180              JUNCTION              2.59      1.70       0.0
  2658181              JUNCTION              2.16      1.68       0.0
  2658182              JUNCTION              0.98      2.25       0.0
  2658183              JUNCTION              1.23      2.00       0.0
  2658184              JUNCTION              1.46      1.73       0.0
  2658185              JUNCTION              0.92      2.20       0.0    Yes
  2658186              JUNCTION              2.05      1.30       0.0    Yes
  2658187              JUNCTION              0.95      0.94       0.0
  2658188              JUNCTION              0.64      1.74       0.0    Yes
  2658189              JUNCTION             -0.08      2.30       0.0    Yes
  2658190              JUNCTION              0.85      1.33       0.0    Yes
  2658191              JUNCTION             -0.60      2.82       0.0    Yes
  2658192              JUNCTION             -0.37      2.91       0.0    Yes
  2658193              JUNCTION             -0.88      2.86       0.0    Yes
  2658194              JUNCTION             -1.28      3.66       0.0    Yes
  2658195              JUNCTION             -1.03      3.43       0.0
  2658196              JUNCTION              0.53      1.81       0.0
  2658197              JUNCTION              0.96      1.44       0.0    Yes
  2658198              JUNCTION              1.74      1.40       0.0    Yes
  2658199              JUNCTION              0.92      1.13       0.0    Yes
  2658200              JUNCTION              0.61      1.50       0.0    Yes
  2658201              JUNCTION              0.71      1.64       0.0    Yes
  2658202              JUNCTION              0.39      1.82       0.0
  2658203              JUNCTION              0.19      2.06       0.0    Yes
  2658204              JUNCTION              0.94      1.29       0.0    Yes
  2658205              JUNCTION              0.39      1.80       0.0    Yes
  2658206              JUNCTION              0.43      1.85       0.0    Yes
  2658207              JUNCTION              0.80      1.39       0.0    Yes
  2658208              JUNCTION              0.11      1.92       0.0
  2658209              JUNCTION             -0.11      2.25       0.0    Yes
  2658210              JUNCTION              0.91      1.39       0.0    Yes
  2658211              JUNCTION              0.32      1.79       0.0    Yes
  2658212              JUNCTION              0.08      2.24       0.0    Yes
  2658213              JUNCTION             -0.26      2.74       0.0    Yes
  2658214              JUNCTION             -0.88      2.97       0.0    Yes
  2658215              JUNCTION             -0.83      2.96       0.0    Yes
  2658216              JUNCTION             -0.77      2.74       0.0
  2658217              JUNCTION             -0.64      2.62       0.0    Yes
  2658218              JUNCTION             -0.37      2.57       0.0
  2658219              JUNCTION              0.10      1.91       0.0    Yes
  2658220              JUNCTION              0.55      1.69       0.0    Yes
  2658221              JUNCTION              0.82      1.45       0.0    Yes
  2658222              JUNCTION             -2.30      4.31       0.0    Yes
  2658223              JUNCTION             -1.03      3.36       0.0    Yes
  2658224              JUNCTION              0.54      1.72       0.0    Yes
  2658225              JUNCTION             -1.14      4.13       0.0    Yes
  2658226              JUNCTION             -1.21      4.21       0.0
  2658227              JUNCTION             -1.28      3.90       0.0
  2658228              JUNCTION             -1.36      3.79       0.0    Yes
  2658229              JUNCTION             -0.44      2.86       0.0    Yes
  2658230              JUNCTION             -0.60      3.09       0.0    Yes
  2658231              JUNCTION             -0.84      3.06       0.0    Yes
  2658232              JUNCTION             -0.98      3.20       0.0    Yes
  2658233              JUNCTION             -1.57      3.48       0.0
  2658234              JUNCTION             -1.40      3.54       0.0    Yes
  2658235              JUNCTION             -0.15      2.53       0.0    Yes
  2658236              JUNCTION             -0.41      2.81       0.0    Yes
  2658237              JUNCTION             -0.70      2.90       0.0    Yes
  2658238              JUNCTION             -1.96      3.97       0.0    Yes
  2658239              JUNCTION             -1.82      3.86       0.0    Yes
  2658240              JUNCTION              0.81      1.36       0.0    Yes
  2658241              JUNCTION              0.32      1.95       0.0    Yes
  2658242              JUNCTION             -0.11      2.72       0.0    Yes
  2658243              JUNCTION              0.48      1.65       0.0    Yes
  2658244              JUNCTION             -0.27      2.47       0.0    Yes
  2658245              JUNCTION             -0.59      2.91       0.0    Yes
  2658246              JUNCTION             -0.12      2.26       0.0    Yes
  2658247              JUNCTION              1.02      1.72       0.0    Yes
  2658248              JUNCTION             -0.99      3.62       0.0    Yes
  2658249              JUNCTION             -1.27      4.01       0.0    Yes
  2658250              JUNCTION              0.78      1.63       0.0    Yes
  2658251              JUNCTION              0.82      1.34       0.0    Yes
  2658252              JUNCTION              0.53      1.78       0.0    Yes
  2658253              JUNCTION              0.18      2.58       0.0    Yes
  2658254              JUNCTION              0.77      1.36       0.0    Yes
  2658255              JUNCTION              0.46      1.88       0.0    Yes
  2658256              JUNCTION              0.12      2.57       0.0    Yes
  2658257              JUNCTION             -0.03      2.81       0.0    Yes
  2658258              JUNCTION             -0.37      2.80       0.0    Yes
  2658259              JUNCTION             -0.55      3.03       0.0    Yes
  2658260              JUNCTION             -0.94      3.08       0.0    Yes
  2658261              JUNCTION             -2.05      4.52       0.0    Yes
  2658262              JUNCTION             -2.27      4.53       0.0    Yes
  2658263              JUNCTION             -2.07      4.44       0.0    Yes
  2658264              JUNCTION              0.92      1.70       0.0    Yes
  2658265              JUNCTION             -1.92      4.21       0.0    Yes
  2658266              JUNCTION              0.75      1.42       0.0    Yes
  2658267              JUNCTION             -2.64      4.94       0.0    Yes
  2658268              JUNCTION             -3.12      5.47       0.0
  2658269              JUNCTION             -2.92      5.18       0.0    Yes
  2658270              JUNCTION             -0.51      2.85       0.0    Yes
  2658271              JUNCTION             -3.29      5.34       0.0
  2658272              JUNCTION             -1.12      3.91       0.0    Yes
  2658273              JUNCTION             -1.37      4.38       0.0    Yes
  2658274              JUNCTION             -1.47      4.17       0.0
  2658275              JUNCTION             -2.30      4.89       0.0
  2658276              JUNCTION             -2.58      4.70       0.0
  2658277              JUNCTION             -2.74      4.76       0.0
  2658278              JUNCTION             -2.83      4.91       0.0
  2658279              JUNCTION             -2.62      4.43       0.0
  2658280              JUNCTION             -2.46      4.35       0.0
  2658281              JUNCTION             -2.37      4.36       0.0    Yes
  2658282              JUNCTION              0.69      1.45       0.0    Yes
  2658283              JUNCTION              0.21      1.86       0.0    Yes
  2658284              JUNCTION             -0.52      3.30       0.0    Yes
  2658285              JUNCTION              0.80      1.45       0.0    Yes
  2658286              JUNCTION              0.36      2.10       0.0    Yes
  2658287              JUNCTION             -0.07      2.59       0.0    Yes
  2658288              JUNCTION              1.01      1.46       0.0    Yes
  2658289              JUNCTION             -0.94      3.44       0.0    Yes
  2658290              JUNCTION             -1.23      3.60       0.0    Yes
  2658291              JUNCTION             -1.37      3.82       0.0    Yes
  2658292              JUNCTION             -0.70      3.00       0.0    Yes
  2658293              JUNCTION             -0.62      3.00       0.0    Yes
  2658294              JUNCTION             -0.36      2.53       0.0    Yes
  2658295              JUNCTION             -0.10      2.24       0.0    Yes
  2658296              JUNCTION              0.15      2.27       0.0    Yes
  2658297              JUNCTION              0.36      1.97       0.0    Yes
  2658298              JUNCTION              0.77      1.22       0.0    Yes
  2658299              JUNCTION              0.95      1.53       0.0    Yes
  2658300              JUNCTION              0.96      1.49       0.0    Yes
  2658301              JUNCTION             -0.55      2.90       0.0    Yes
  2658302              JUNCTION              0.56      1.79       0.0    Yes
  2658303              JUNCTION              0.01      3.50       0.0    Yes
  2658304              JUNCTION             -0.84      3.26       0.0    Yes
  2658305              JUNCTION             -1.39      3.61       0.0    Yes
  2658306              JUNCTION             -1.64      3.89       0.0    Yes
  2658307              JUNCTION             -1.13      3.27       0.0    Yes
  2658308              JUNCTION              0.55      1.66       0.0    Yes
  2658309              JUNCTION              0.62      1.88       0.0    Yes
  2658310              JUNCTION             -0.14      2.37       0.0
  2658311              JUNCTION              0.01      2.19       0.0
  2658312              JUNCTION              0.20      2.21       0.0    Yes
  2658313              JUNCTION              0.66      1.75       0.0    Yes
  2658314              JUNCTION              0.78      1.76       0.0    Yes
  2658315              JUNCTION              0.29      2.08       0.0    Yes
  2658316              JUNCTION             -1.15      3.57       0.0    Yes
  2658317              JUNCTION             -0.11      2.54       0.0    Yes
  2658318              JUNCTION              0.65      1.78       0.0
  2658319              JUNCTION              0.90      1.62       0.0    Yes
  2658320              JUNCTION              1.05      1.43       0.0    Yes
  2658321              JUNCTION              1.30      1.44       0.0    Yes
  2658322              JUNCTION              0.13      2.31       0.0    Yes
  2658323              JUNCTION              1.34      1.29       0.0    Yes
  2658324              JUNCTION              1.28      1.56       0.0    Yes
  2658325              JUNCTION              1.18      1.60       0.0    Yes
  2658326              JUNCTION              0.95      1.88       0.0
  2658327              JUNCTION             -0.33      2.89       0.0    Yes
  2658328              JUNCTION              0.16      2.23       0.0
  2658329              JUNCTION              0.93      1.38       0.0    Yes
  2658330              JUNCTION              0.51      1.76       0.0    Yes
  2658331              JUNCTION              0.75      1.69       0.0    Yes
  2658332              JUNCTION              0.36      2.06       0.0    Yes
  2658333              JUNCTION             -0.01      2.26       0.0    Yes
  2658334              JUNCTION              0.56      1.80       0.0    Yes
  2658335              JUNCTION              0.94      1.32       0.0    Yes
  2658336              JUNCTION              0.98      1.63       0.0    Yes
  2658337              JUNCTION              0.76      1.82       0.0    Yes
  2658338              JUNCTION             -1.46      3.81       0.0    Yes
  2658339              JUNCTION             -1.58      3.84       0.0
  2658340              JUNCTION             -1.76      3.00       0.0
  2658341              JUNCTION             -1.99      4.52       0.0
  2658342              JUNCTION             -2.19      4.67       0.0
  2658343              JUNCTION              0.67      1.91       0.0    Yes
  2658344              JUNCTION             -0.22      2.76       0.0    Yes
  2658345              JUNCTION              0.51      2.45       0.0    Yes
  2658346              JUNCTION              1.94      1.40       0.0    Yes
  2658347              JUNCTION              1.66      1.76       0.0    Yes
  2658348              JUNCTION              1.60      1.67       0.0    Yes
  2658349              JUNCTION              1.33      1.63       0.0
  2658350              JUNCTION              2.34      1.02       0.0    Yes
  2658351              JUNCTION             -2.54      4.64       0.0
  2658352              JUNCTION             -2.37      4.59       0.0
  2658353              JUNCTION             -0.92      3.42       0.0    Yes
  2658354              JUNCTION              0.87      1.45       0.0    Yes
  2658355              JUNCTION              0.37      2.18       0.0    Yes
  2658356              JUNCTION             -0.23      2.63       0.0    Yes
  2658357              JUNCTION             -0.75      3.19       0.0    Yes
  2658358              JUNCTION              1.01      1.57       0.0    Yes
  2658359              JUNCTION             -0.32      3.43       0.0    Yes
  2658360              JUNCTION              0.32      2.05       0.0    Yes
  2658361              JUNCTION              0.74      2.52       0.0
  2658362              JUNCTION              0.87      2.56       0.0
  2658363              JUNCTION             -0.03      2.39       0.0
  2658364              JUNCTION              1.01      1.52       0.0    Yes
  2658365              JUNCTION              1.40      1.14       0.0    Yes
  2658366              JUNCTION              1.32      1.24       0.0    Yes
  2658367              JUNCTION              0.62      1.71       0.0    Yes
  2658368              JUNCTION              0.08      2.39       0.0    Yes
  2658369              JUNCTION              0.70      1.66       0.0    Yes
  2658370              JUNCTION              0.46      1.71       0.0    Yes
[...]
  5029140_2               1.00   1.00  0.00  0.00  0.00  0.00  0.00  0.00  0.00  0.00
  5029141                 1.00   1.00  0.00  0.00  0.00  0.00  0.00  0.00  0.00  0.00
  5029141_1               1.00   1.00  0.00  0.00  0.00  0.00  0.00  0.00  0.00  0.00
  5029141_2               1.00   1.00  0.00  0.00  0.00  0.00  0.00  0.00  0.00  0.00
  5029141_3               1.00   1.00  0.00  0.00  0.00  0.00  0.00  0.00  0.00  0.00
  5029141_4               1.00   1.00  0.00  0.00  0.00  0.00  0.00  0.00  0.00  0.00
  5029141_5               1.00   1.00  0.00  0.00  0.00  0.00  0.00  0.00  0.00  0.00
  5029144                 1.00   1.00  0.00  0.00  0.00  0.00  0.00  0.00  0.00  0.00
  5029144_1               1.00   1.00  0.00  0.00  0.00  0.00  0.00  0.00  0.00  0.00
  5029144_2               1.00   1.00  0.00  0.00  0.00  0.00  0.00  0.00  0.00  0.00
  5029144_3               1.00   1.00  0.00  0.00  0.00  0.00  0.00  0.00  0.00  0.00
  5029145                 1.00   1.00  0.00  0.00  0.00  0.00  0.00  0.00  0.00  0.00
  5029147                 1.00   1.00  0.00  0.00  0.00  0.00  0.00  0.00  0.00  0.00
  5029147_1               1.00   1.00  0.00  0.00  0.00  0.00  0.00  0.00  0.00  0.00
  5029173                 1.00   1.00  0.00  0.00  0.00  0.00  0.00  0.00  0.00  0.00
  5029174                 1.00   1.00  0.00  0.00  0.00  0.00  0.00  0.00  0.00  0.00
  5029175                 1.00   1.00  0.00  0.00  0.00  0.00  0.00  0.00  0.00  0.00
  5029177                 1.00   1.00  0.00  0.00  0.00  0.00  0.00  0.00  0.00  0.00
  5029177_1               1.00   1.00  0.00  0.00  0.00  0.00  0.00  0.00  0.00  0.00
  5029177_2               1.00   1.00  0.00  0.00  0.00  0.00  0.00  0.00  0.00  0.00
  5029177_3               1.00   1.00  0.00  0.00  0.00  0.00  0.00  0.00  0.00  0.00
  5029177_4               1.00   1.00  0.00  0.00  0.00  0.00  0.00  0.00  0.00  0.00
  5029177_5               1.00   1.00  0.00  0.00  0.00  0.00  0.00  0.00  0.00  0.00
  5029177_6               4.31   1.00  0.00  0.00  0.00  0.00  0.00  0.00  0.00  0.00
  5029177_7               1.00   1.00  0.00  0.00  0.00  0.00  0.00  0.00  0.00  0.00
  5029177_8               1.00   1.00  0.00  0.00  0.00  0.00  0.00  0.00  0.00  0.00
  5029177_9              14.17   1.00  0.00  0.00  0.00  0.00  0.00  0.00  0.00  0.00
  5039576                 1.00   1.00  0.00  0.00  0.00  0.00  0.00  0.00  0.00  0.00
  5039576_1               1.00   1.00  0.00  0.00  0.00  0.00  0.00  0.00  0.00  0.00
  5039577                 1.00   1.00  0.00  0.00  0.00  0.00  0.00  0.00  0.00  0.00
  5039577_1               1.00   1.00  0.00  0.00  0.00  0.00  0.00  0.00  0.00  0.00
  5039580                 1.12   1.00  0.00  0.00  0.00  0.00  0.00  0.00  0.00  0.00
  5039580_1               1.00   1.00  0.00  0.00  0.00  0.00  0.00  0.00  0.00  0.00
  5039580_2               1.00   1.00  0.00  0.00  0.00  0.00  0.00  0.00  0.00  0.00
  5039581                 1.00   1.00  0.00  0.00  0.00  0.00  0.00  0.00  0.00  0.00
  5039581_1               1.00   1.00  0.00  0.00  0.00  0.00  0.00  0.00  0.00  0.00
  5039581_2               2.28   1.00  0.00  0.00  0.00  0.00  0.00  0.00  0.00  0.00
  5039581_3               1.00   1.00  0.00  0.00  0.00  0.00  0.00  0.00  0.00  0.00
  5042009                 1.00   0.03  0.00  0.00  0.00  0.00  0.00  0.97  0.00  0.00
  5042010                 1.00   0.07  0.00  0.00  0.00  0.00  0.00  0.93  0.00  0.00
  5042011                 1.00   0.02  0.00  0.00  0.98  0.00  0.00  0.00  0.55  0.00
  5042012                 1.00   0.05  0.00  0.00  0.00  0.00  0.00  0.95  0.00  0.00
  5042013                 1.00   0.00  0.00  0.00  0.02  0.97  0.00  0.00  0.84  0.00
  5042014                 1.00   0.10  0.00  0.00  0.90  0.00  0.00  0.00  0.44  0.00
  5042015                 1.00   0.15  0.00  0.00  0.19  0.00  0.00  0.67  0.12  0.00
  5042763                 1.13   1.00  0.00  0.00  0.00  0.00  0.00  0.00  0.00  0.00
  5042763_1               1.00   1.00  0.00  0.00  0.00  0.00  0.00  0.00  0.00  0.00
  5042763_2               1.00   1.00  0.00  0.00  0.00  0.00  0.00  0.00  0.00  0.00
  5042763_3               1.00   1.00  0.00  0.00  0.00  0.00  0.00  0.00  0.00  0.00
  5042763_4               1.00   1.00  0.00  0.00  0.00  0.00  0.00  0.00  0.00  0.00
  5042764                 1.00   1.00  0.00  0.00  0.00  0.00  0.00  0.00  0.00  0.00
  5042764_1               1.00   1.00  0.00  0.00  0.00  0.00  0.00  0.00  0.00  0.00
  5042764_10              1.00   1.00  0.00  0.00  0.00  0.00  0.00  0.00  0.00  0.00
  5042764_11              1.00   1.00  0.00  0.00  0.00  0.00  0.00  0.00  0.00  0.00
  5042764_2               1.00   1.00  0.00  0.00  0.00  0.00  0.00  0.00  0.00  0.00
  5042764_3               1.00   1.00  0.00  0.00  0.00  0.00  0.00  0.00  0.00  0.00
  5042764_4               1.00   1.00  0.00  0.00  0.00  0.00  0.00  0.00  0.00  0.00
  5042764_5               1.00   1.00  0.00  0.00  0.00  0.00  0.00  0.00  0.00  0.00
  5042764_6               1.00   1.00  0.00  0.00  0.00  0.00  0.00  0.00  0.00  0.00
  5042764_7               1.00   1.00  0.00  0.00  0.00  0.00  0.00  0.00  0.00  0.00
  5042764_8               1.00   1.00  0.00  0.00  0.00  0.00  0.00  0.00  0.00  0.00
  5042764_9               1.00   1.00  0.00  0.00  0.00  0.00  0.00  0.00  0.00  0.00
  5042767                 1.00   1.00  0.00  0.00  0.00  0.00  0.00  0.00  0.00  0.00
  5042778                 1.00   1.00  0.00  0.00  0.00  0.00  0.00  0.00  0.00  0.00
  5042779                 1.00   0.00  0.00  0.00  0.00  0.00  0.00  1.00  0.00  0.00
  5042780                 1.00   0.03  0.00  0.00  0.00  0.00  0.00  0.97  0.00  0.00
  5042781                 1.00   0.08  0.00  0.00  0.00  0.00  0.00  0.92  0.00  0.00
  5042782                 1.00   0.00  0.00  0.00  0.00  0.00  0.00  1.00  0.00  0.00
  5042783                 1.00   0.03  0.00  0.00  0.00  0.00  0.00  0.97  0.00  0.00
  5042784                 1.00   0.08  0.00  0.00  0.00  0.00  0.00  0.92  0.00  0.00
  5042785                 1.00   0.14  0.00  0.00  0.00  0.00  0.00  0.86  0.00  0.00
  5042786                 1.00   0.20  0.00  0.00  0.00  0.00  0.00  0.80  0.00  0.00
  5042787                 1.00   0.00  0.00  0.00  0.00  0.00  0.00  1.00  0.00  0.00
  5042788                 1.00   0.03  0.00  0.00  0.00  0.00  0.00  0.97  0.00  0.00
  5042790                 1.00   0.00  0.00  0.00  0.00  0.00  0.00  1.00  0.00  0.00
  5042791                 1.00   0.00  0.00  0.00  0.00  0.00  0.00  1.00  0.00  0.00
  5042792                 1.00   0.08  0.00  0.00  0.00  0.00  0.00  0.92  0.00  0.00
  5042793                 1.00   1.00  0.00  0.00  0.00  0.00  0.00  0.00  0.00  0.00
  5042794                 1.00   1.00  0.00  0.00  0.00  0.00  0.00  0.00  0.00  0.00
  5042796                 1.00   0.03  0.00  0.00  0.00  0.00  0.00  0.97  0.00  0.00
  5042797                 1.00   0.00  0.00  0.00  0.00  0.00  0.00  1.00  0.00  0.00
  5056564                 1.00   1.00  0.00  0.00  0.00  0.00  0.00  0.00  0.00  0.00
  5056564_1               1.00   1.00  0.00  0.00  0.00  0.00  0.00  0.00  0.00  0.00
  5056564_2               1.00   1.00  0.00  0.00  0.00  0.00  0.00  0.00  0.00  0.00
  5056564_3               1.00   1.00  0.00  0.00  0.00  0.00  0.00  0.00  0.00  0.00
  5056564_4               1.00   1.00  0.00  0.00  0.00  0.00  0.00  0.00  0.00  0.00
  5056565                 1.00   1.00  0.00  0.00  0.00  0.00  0.00  0.00  0.00  0.00
  5056565_1               1.00   1.00  0.00  0.00  0.00  0.00  0.00  0.00  0.00  0.00
  5056565_2               1.00   1.00  0.00  0.00  0.00  0.00  0.00  0.00  0.00  0.00
  5056565_3               1.00   1.00  0.00  0.00  0.00  0.00  0.00  0.00  0.00  0.00
  5056565_4               1.00   1.00  0.00  0.00  0.00  0.00  0.00  0.00  0.00  0.00
  5056565_5               1.00   1.00  0.00  0.00  0.00  0.00  0.00  0.00  0.00  0.00
  5056565_6               1.00   1.00  0.00  0.00  0.00  0.00  0.00  0.00  0.00  0.00
  5056565_7               1.00   1.00  0.00  0.00  0.00  0.00  0.00  0.00  0.00  0.00
  5056565_8               1.00   1.00  0.00  0.00  0.00  0.00  0.00  0.00  0.00  0.00
  5056565_9               1.00   1.00  0.00  0.00  0.00  0.00  0.00  0.00  0.00  0.00
  5056566                 1.00   1.00  0.00  0.00  0.00  0.00  0.00  0.00  0.00  0.00
  5056566_1               1.00   1.00  0.00  0.00  0.00  0.00  0.00  0.00  0.00  0.00
  5056566_2               1.00   1.00  0.00  0.00  0.00  0.00  0.00  0.00  0.00  0.00
  5064303                 1.00   0.00  0.00  0.00  0.00  0.00  0.00  1.00  0.00  0.00
  
  
  *************************
  Conduit Surcharge Summary
  *************************
  
  ----------------------------------------------------------------------------
                                                           Hours        Hours 
                         --------- Hours Full --------   Above Full   Capacity
  Conduit                Both Ends  Upstream  Dnstream   Normal Flow   Limited
  ----------------------------------------------------------------------------
  2525562                     0.01      0.01      0.01      0.01         0.01
  2526144                     0.01      0.01      0.08      0.01         0.01
  2526149                     0.12      0.12      0.13      0.01         0.01
  2526764                     0.01      0.01      0.72      0.01         0.01
  2526795                     0.01      0.01      0.35      0.01         0.01
  2623392                     0.01      0.02      0.01      0.04         0.01
  2623392_4                   0.52      0.52      0.52      0.13         0.35
  2623392_5                   0.17      0.17      0.50      0.01         0.01
  2623392_7                   0.01      0.01      0.52      0.01         0.01
  2623906                     0.25      0.26      0.26      0.18         0.09
  2623906_1                   0.14      0.20      0.14      0.20         0.10
  2623906_2                   0.14      0.14      0.16      0.01         0.01
  2623906_3                   0.01      0.01      0.14      0.01         0.01
  2623906_4                   0.20      0.26      0.20      0.26         0.14
  2623955                     0.01      0.01      0.76      0.01         0.01
  2623959_4                   0.01      0.01      0.80      0.01         0.01
  2623960                     0.84      0.84      0.84      0.04         0.80
  2623960_1                   0.83      0.83      0.84      0.03         0.01
  2623960_2                   0.82      0.82      0.83      0.03         0.01
  2623960_3                   0.81      0.81      0.82      0.02         0.01
  2623960_4                   0.81      0.81      0.81      0.01         0.01
  2623960_5                   0.81      0.81      0.81      0.01         0.01
  2623960_6                   0.80      0.81      0.80      0.01         0.20
  2623961                     0.76      0.76      0.76      0.09         0.07
  2623961_1                   0.75      0.75      0.76      0.06         0.01
  2623961_2                   0.75      0.75      0.75      0.07         0.01
  2623961_3                   0.75      0.75      0.75      0.05         0.01
  2623961_4                   0.75      0.75      0.75      0.07         0.01
  2623961_5                   0.74      0.75      0.74      0.05         0.05
  2623961_6                   0.73      0.73      0.74      0.05         0.01
  2623961_7                   0.07      0.07      0.73      0.06         0.01
  2623961_8                   0.06      0.07      0.08      0.02         0.01
  2623961_9                   0.07      0.07      0.08      0.01         0.01
  2623962_5                   0.01      0.01      0.07      0.01         0.01
  2623963                     0.01      0.01      1.47      0.01         0.01
  2626438                     0.01      0.01      0.01      0.01         0.01
  2626438_1                   0.01      0.01      0.01      0.01         0.01
  2626438_2                   0.01      0.01      0.28      0.01         0.01
  2626443                     0.05      0.05      0.94      0.01         0.02
  2626443_1                   0.03      0.04      0.04      0.05         0.03
  2626443_2                   0.93      0.94      0.93      0.15         0.31
  2626443_3                   0.04      0.04      0.93      0.01         0.01
  2626443_4                   0.03      0.04      0.03      0.12         0.02
  2626443_5                   0.01      0.02      0.01      0.15         0.01
  
  
  ***************
  Pumping Summary
  ***************
  
  ---------------------------------------------------------------------------------------------------------
                                                  Min       Avg       Max     Total     Power    % Time Off
                        Percent   Number of      Flow      Flow      Flow    Volume     Usage    Pump Curve
  Pump                 Utilized   Start-Ups       LPS       LPS       LPS  10^6 ltr     Kw-hr    Low   High
  ---------------------------------------------------------------------------------------------------------
  MDJ108_P1                0.00           0      0.00      0.00      0.00     0.000      0.00    0.0    0.0
  MDJ108_P2                0.00           0      0.00      0.00      0.00     0.000      0.00    0.0    0.0
  MDJ110_P1                0.00           0      0.00      0.00      0.00     0.000      0.00    0.0    0.0
  MDJ110_P2                0.00           0      0.00      0.00      0.00     0.000      0.00    0.0    0.0
  MDJ111_P1                2.11           2      0.00     35.93     37.52     0.005      0.06    0.0    0.0
  MDJ111_P2                0.00           0      0.00      0.00      0.00     0.000      0.00    0.0    0.0
  MDJ112_P1                0.00           0      0.00      0.00      0.00     0.000      0.00    0.0    0.0
  MDJ112_P2                0.00           0      0.00      0.00      0.00     0.000      0.00    0.0    0.0
  MDJ114_P1                2.00           2      0.00     52.19     54.90     0.008      0.08    0.0    0.0
  MDJ114_P2                0.00           0      0.00      0.00      0.00     0.000      0.00    0.0    0.0
  MDJ115_P1                6.24           9      0.00     11.08     11.20     0.005      0.02    0.0   11.6
  MDJ115_P2                0.00           0      0.00      0.00      0.00     0.000      0.00    0.0    0.0
  MDJ116_P1                0.00           0      0.00      0.00      0.00     0.000      0.00    0.0    0.0
  MDJ116_P2                0.00           0      0.00      0.00      0.00     0.000      0.00    0.0    0.0
  MDJ117_P1                0.00           0      0.00      0.00      0.00     0.000      0.00    0.0    0.0
  MDJ117_P2                0.00           0      0.00      0.00      0.00     0.000      0.00    0.0    0.0
  MDJ118_P1                0.50           1      0.00     64.66     64.98     0.002      0.04    0.0    0.0
  MDJ118_P2                0.00           0      0.00      0.00      0.00     0.000      0.00    0.0    0.0
  MDJ120_P1                0.00           0      0.00      0.00      0.00     0.000      0.00    0.0    0.0
  MDJ120_P2                0.00           0      0.00      0.00      0.00     0.000      0.00    0.0    0.0
  PAC101_P1                0.00           0      0.00      0.00      0.00     0.000      0.00    0.0    0.0
  PAC101_P2                0.00           0      0.00      0.00      0.00     0.000      0.00    0.0    0.0
  PAC102_P1                0.00           0      0.00      0.00      0.00     0.000      0.00    0.0    0.0
  PAC102_P2                0.00           0      0.00      0.00      0.00     0.000      0.00    0.0    0.0
  PAC103_P1                0.64           1      0.00     16.39     17.45     0.001      0.00    0.0    0.0
  PAC103_P2                0.00           0      0.00      0.00      0.00     0.000      0.00    0.0    0.0
  PAC104_P1                0.58           1      0.00     21.70     23.07     0.001      0.01    0.0    0.0
  PAC104_P2                0.00           0      0.00      0.00      0.00     0.000      0.00    0.0    0.0
  PAC105_P1                0.00           0      0.00      0.00      0.00     0.000      0.00    0.0    0.0
  PAC105_P2                0.00           0      0.00      0.00      0.00     0.000      0.00    0.0    0.0
  PAC106_P1               13.81           1      0.00     22.03     35.62     0.022      0.25    0.0    0.0
  PAC106_P2                8.81         179      0.00     40.50     40.50     0.026      0.25    0.0  100.0
  PAC107_P1                0.61           2      0.00     13.85     14.39     0.001      0.00    0.0    0.0
  PAC107_P2                0.00           0      0.00      0.00      0.00     0.000      0.00    0.0    0.0
  PAC119_P1                0.00           0      0.00      0.00      0.00     0.000      0.00    0.0    0.0
  PAC119_P2                0.00           0      0.00      0.00      0.00     0.000      0.00    0.0    0.0
  PAC212_P1                0.00           0      0.00      0.00      0.00     0.000      0.00    0.0    0.0
  PAC212_P2                0.00           0      0.00      0.00      0.00     0.000      0.00    0.0    0.0
  PAC212_P3                0.00           0      0.00      0.00      0.00     0.000      0.00    0.0    0.0
  TWW109_P1                2.60           5      0.00     54.07     74.00     0.010      0.43    0.0   10.8
  TWW109_P2                0.00           0      0.00      0.00      0.00     0.000      0.00    0.0    0.0
  TWW113_P1                5.81           7      0.00      4.99      5.00     0.002      0.02    0.0    1.9
  TWW113_P2                0.00           0      0.00      0.00      0.00     0.000      0.00    0.0    0.0
  TWW177_P1                0.00           0      0.00      0.00      0.00     0.000      0.00    0.0    0.0
  TWW177_P2                0.00           0      0.00      0.00      0.00     0.000      0.00    0.0    0.0
  TWW178_P1                0.00           0      0.00      0.00      0.00     0.000      0.00    0.0    0.0
  TWW178_P2                0.00           0      0.00      0.00      0.00     0.000      0.00    0.0    0.0
  TWW179_P1                0.00           0      0.00      0.00      0.00     0.000      0.00    0.0    0.0
  TWW179_P2                0.00           0      0.00      0.00      0.00     0.000      0.00    0.0    0.0
  TWW180_P1                0.00           0      0.00      0.00      0.00     0.000      0.00    0.0    0.0
  TWW180_P2                0.00           0      0.00      0.00      0.00     0.000      0.00    0.0    0.0
  TWW181_P1                0.00           0      0.00      0.00      0.00     0.000      0.00    0.0    0.0
  TWW181_P2                0.00           0      0.00      0.00      0.00     0.000      0.00    0.0    0.0
  TWW182_P1                0.00           0      0.00      0.00      0.00     0.000      0.00    0.0    0.0
  TWW182_P2                0.00           0      0.00      0.00      0.00     0.000      0.00    0.0    0.0
  TWW183_P1                2.00           2      0.00     31.44     47.74     0.005      0.11    0.0    0.0
  TWW183_P2                0.00           0      0.00      0.00      0.00     0.000      0.00    0.0    0.0
  TWW184_P1                3.11           2      0.00     18.36     40.20     0.004      0.13    0.0    0.0
  TWW184_P2                0.00           0      0.00      0.00      0.00     0.000      0.00    0.0    0.0
  TWW185_P1                1.89           2      0.00      5.32      5.35     0.001      0.01    0.0   41.2
  TWW185_P2                0.00           0      0.00      0.00      0.00     0.000      0.00    0.0    0.0
  TWW186_P1                0.00           0      0.00      0.00      0.00     0.000      0.00    0.0    0.0
  

  Analysis begun on:  Fri Nov 29 09:09:20 2019
  Analysis ended on:  Fri Nov 29 09:09:26 2019
  Total elapsed time: 00:00:06