
  EPA STORM WATER MANAGEMENT MODEL - VERSION 5.1 (Build 5.1.013)
  --------------------------------------------------------------

  
  ERROR 209: undefined object 0.647704 at line 37648 of [CONDUIT] section:
  2629484			0.647704	0.010000	0.000000	0.000000	0.000000	0.000000

  
  ERROR 209: undefined object 2.751658 at line 37656 of [CONDUIT] section:
  2629488	BME002_RMPCA		2.751658	0.010000	0.000000	0.000000	0.000000	0.000000

  
  ERROR 209: undefined object 0.908089 at line 37662 of [CONDUIT] section:
  2629491		BME002_58	0.908089	0.010000	0.000000	-0.220000	0.000000	0.000000

  
  ERROR 209: undefined object 0.302123 at line 37664 of [CONDUIT] section:
  2629492			0.302123	0.010000	0.000000	0.000000	0.000000	0.000000

  
  ERROR 209: undefined object 13.347490 at line 39040 of [CONDUIT] section:
  5079813	5079866		13.347490	0.012800	0.000000	32.060000	0.000000	0.000000

  
  ERROR 209: undefined object 13.574344 at line 39042 of [CONDUIT] section:
  5079814	5079865		13.574344	0.012800	0.000000	31.630000	0.000000	0.000000

  
  ERROR 209: undefined object 13.346051 at line 39044 of [CONDUIT] section:
  5079815	5079853		13.346051	0.012800	0.000000	30.850000	0.000000	0.000000

  
  ERROR 209: undefined object 13.188361 at line 39046 of [CONDUIT] section:
  5079816	5079852		13.188361	0.012800	0.000000	30.510000	0.000000	0.000000

  
  ERROR 209: undefined object 13.484202 at line 39048 of [CONDUIT] section:
  5079817	5079851		13.484202	0.012800	0.000000	30.320000	0.000000	0.000000

  
  ERROR 209: undefined object 13.711189 at line 39050 of [CONDUIT] section:
  5079818	5079850		13.711189	0.012800	0.000000	29.740000	0.000000	0.000000

  
  ERROR 209: undefined object 13.593384 at line 39052 of [CONDUIT] section:
  5079819	5079849		13.593384	0.012800	0.000000	29.630000	0.000000	0.000000

  
  ERROR 209: undefined object 13.477269 at line 39058 of [CONDUIT] section:
  5079822	5079855		13.477269	0.012800	0.000000	32.130000	0.000000	0.000000

  
  ERROR 209: undefined object 13.530982 at line 39064 of [CONDUIT] section:
  5079825	5079854		13.530982	0.012800	0.000000	31.800000	0.000000	0.000000

  
  ERROR 209: undefined object 13.685085 at line 39072 of [CONDUIT] section:
  5079829	5079861		13.685085	0.012800	0.000000	28.340000	0.000000	0.000000

  
  ERROR 209: undefined object 13.451488 at line 39074 of [CONDUIT] section:
  5079830	5079862		13.451488	0.012800	0.000000	28.970000	0.000000	0.000000

  
  ERROR 209: undefined object 13.981633 at line 39076 of [CONDUIT] section:
  5079831	5079863		13.981633	0.012800	0.000000	30.090000	0.000000	0.000000

  
  ERROR 209: undefined object 13.934643 at line 39078 of [CONDUIT] section:
  5079832	5079864		13.934643	0.012800	0.000000	30.690000	0.000000	0.000000

  
  ERROR 209: undefined object 13.602303 at line 39086 of [CONDUIT] section:
  5079836	5079860		13.602303	0.012800	0.000000	37.180000	0.000000	0.000000

  
  ERROR 209: undefined object 13.709436 at line 39092 of [CONDUIT] section:
  5079839	5079856		13.709436	0.012800	0.000000	35.450000	0.000000	0.000000

  
  ERROR 209: undefined object 13.785689 at line 39094 of [CONDUIT] section:
  5079840	5079857		13.785689	0.012800	0.000000	34.240000	0.000000	0.000000

  
  ERROR 209: undefined object 13.729617 at line 39096 of [CONDUIT] section:
  5079841	5079858		13.729617	0.012800	0.000000	33.330000	0.000000	0.000000

  
  ERROR 209: undefined object 13.611233 at line 39098 of [CONDUIT] section:
  5079842	5079859		13.611233	0.012800	0.000000	32.860000	0.000000	0.000000

  
  ERROR 209: undefined object 13.092971 at line 39100 of [CONDUIT] section:
  5079843	5079847		13.092971	0.012800	0.000000	32.050000	0.000000	0.000000

  
  ERROR 209: undefined object 24.104558 at line 39341 of [CONDUIT] section:
  5127787		5127805	24.104558	0.010000	0.000000	0.000000	0.000000	0.000000

  
  ERROR 209: undefined object 51.122518 at line 39455 of [CONDUIT] section:
  5150738	5150764		51.122518	0.010000	0.000000	0.000000	0.000000	0.000000

  
  ERROR 209: undefined object 54.425866 at line 39457 of [CONDUIT] section:
  5150739			54.425866	0.010000	0.000000	0.000000	0.000000	0.000000

  
  ERROR 209: undefined object 22.327824 at line 39565 of [CONDUIT] section:
  5158443			22.327824	0.010000	0.000000	0.000000	0.000000	0.000000

  
  ERROR 209: undefined object 23.319141 at line 39597 of [CONDUIT] section:
  5158460	5158480		23.319141	0.010000	0.000000	0.000000	0.000000	0.000000

  
  ERROR 209: undefined object 13.221544 at line 39615 of [CONDUIT] section:
  5165765		5165826	13.221544	0.010000	0.000000	0.000000	0.000000	0.000000

  
  ERROR 209: undefined object 12.166888 at line 39617 of [CONDUIT] section:
  5165766		G6067416	12.166888	0.010000	0.000000	0.000000	0.000000	0.000000

  
  ERROR 209: undefined object 14.174877 at line 39619 of [CONDUIT] section:
  5165767		5165818	14.174877	0.010000	0.000000	0.000000	0.000000	0.000000

  
  ERROR 209: undefined object 12.535308 at line 39625 of [CONDUIT] section:
  5165770		5165822	12.535308	0.010000	0.000000	0.000000	0.000000	0.000000

  
  ERROR 209: undefined object 12.657094 at line 39635 of [CONDUIT] section:
  5165775		G6067414	12.657094	0.010000	0.000000	0.000000	0.000000	0.000000

  
  ERROR 209: undefined object 13.920336 at line 39641 of [CONDUIT] section:
  5165778		5165820	13.920336	0.010000	0.000000	0.000000	0.000000	0.000000

  
  ERROR 209: undefined object 12.294888 at line 39643 of [CONDUIT] section:
  5165779		G6067415	12.294888	0.010000	0.000000	0.000000	0.000000	0.000000

  
  ERROR 209: undefined object 12.257791 at line 39657 of [CONDUIT] section:
  5165787		5165821	12.257791	0.010000	0.000000	0.000000	0.000000	0.000000

  
  ERROR 209: undefined object 11.521423 at line 39661 of [CONDUIT] section:
  5165789		5165830	11.521423	0.010000	0.000000	0.000000	0.000000	0.000000

  
  ERROR 209: undefined object 11.613845 at line 39673 of [CONDUIT] section:
  5165798		5165816	11.613845	0.010000	0.000000	0.000000	0.000000	0.000000

  
  ERROR 209: undefined object 11.965236 at line 39675 of [CONDUIT] section:
  5165799		5165817	11.965236	0.010000	0.000000	0.000000	0.000000	0.000000

  
  ERROR 209: undefined object 11.426664 at line 39765 of [CONDUIT] section:
  5174160		G6070720	11.426664	0.010000	0.000000	0.000000	0.000000	0.000000

  
  ERROR 209: undefined object 11.875908 at line 39793 of [CONDUIT] section:
  5174174		G6070798	11.875908	0.010000	0.000000	0.000000	0.000000	0.000000

  
  ERROR 209: undefined object 11.875706 at line 39805 of [CONDUIT] section:
  5174180		G6070852	11.875706	0.010000	0.000000	0.000000	0.000000	0.000000

  
  ERROR 209: undefined object 12.323317 at line 39807 of [CONDUIT] section:
  5174181		G6070851	12.323317	0.010000	0.000000	0.000000	0.000000	0.000000

  
  ERROR 209: undefined object 12.177581 at line 39925 of [CONDUIT] section:
  5190893		5191032	12.177581	0.010000	0.000000	0.000000	0.000000	0.000000

  
  ERROR 209: undefined object 12.459248 at line 39931 of [CONDUIT] section:
  5190965		G6074320	12.459248	0.010000	0.000000	0.000000	0.000000	0.000000

  
  ERROR 209: undefined object 12.127377 at line 39933 of [CONDUIT] section:
  5190966		G6074323	12.127377	0.010000	0.000000	0.000000	0.000000	0.000000

  
  ERROR 209: undefined object 12.025716 at line 39937 of [CONDUIT] section:
  5190968		5191033	12.025716	0.010000	0.000000	0.000000	0.000000	0.000000

  
  ERROR 209: undefined object 11.958248 at line 39939 of [CONDUIT] section:
  5190969		5191037	11.958248	0.010000	0.000000	0.000000	0.000000	0.000000

  
  ERROR 209: undefined object 12.402062 at line 39949 of [CONDUIT] section:
  5190974		5191035	12.402062	0.010000	0.000000	0.000000	0.000000	0.000000

  
  ERROR 209: undefined object 12.475045 at line 39961 of [CONDUIT] section:
  5190980		G6074321	12.475045	0.010000	0.000000	0.000000	0.000000	0.000000

  
  ERROR 209: undefined object 12.552187 at line 39963 of [CONDUIT] section:
  5190981		G6074322	12.552187	0.010000	0.000000	0.000000	0.000000	0.000000

  
  ERROR 209: undefined object 15.921465 at line 39981 of [CONDUIT] section:
  5190990		5191036	15.921465	0.010000	0.000000	0.000000	0.000000	0.000000

  
  ERROR 209: undefined object 12.290700 at line 39989 of [CONDUIT] section:
  5190994		G6074318	12.290700	0.010000	0.000000	0.000000	0.000000	0.000000

  
  ERROR 209: undefined object 12.175256 at line 39991 of [CONDUIT] section:
  5190995		G6074319	12.175256	0.010000	0.000000	0.000000	0.000000	0.000000

  
  ERROR 209: undefined object 12.525336 at line 39993 of [CONDUIT] section:
  5190996		G6074324	12.525336	0.010000	0.000000	0.000000	0.000000	0.000000

  
  ERROR 209: undefined object 5.049200 at line 40001 of [CONDUIT] section:
  5218919		5219048	5.049200	0.010000	0.000000	0.000000	0.000000	0.000000

  
  ERROR 209: undefined object 12.070852 at line 40003 of [CONDUIT] section:
  5218920		G6077337	12.070852	0.010000	0.000000	0.000000	0.000000	0.000000

  
  ERROR 209: undefined object 12.281639 at line 40011 of [CONDUIT] section:
  5218924		G6077339	12.281639	0.010000	0.000000	0.000000	0.000000	0.000000

  
  ERROR 209: undefined object 12.056638 at line 40017 of [CONDUIT] section:
  5218927			12.056638	0.010000	0.000000	0.000000	0.000000	0.000000

  
  ERROR 209: undefined object 12.434253 at line 40021 of [CONDUIT] section:
  5218929		G6077342	12.434253	0.010000	0.000000	0.000000	0.000000	0.000000

  
  ERROR 209: undefined object 12.076375 at line 40027 of [CONDUIT] section:
  5218932		5219048	12.076375	0.010000	0.000000	0.000000	0.000000	0.000000

  
  ERROR 209: undefined object 12.302652 at line 40029 of [CONDUIT] section:
  5218933		G6077336	12.302652	0.010000	0.000000	0.000000	0.000000	0.000000

  
  ERROR 209: undefined object 12.488723 at line 40031 of [CONDUIT] section:
  5218934		G6077340	12.488723	0.010000	0.000000	0.000000	0.000000	0.000000

  
  ERROR 209: undefined object 11.971811 at line 40033 of [CONDUIT] section:
  5218935		5219051	11.971811	0.010000	0.000000	0.000000	0.000000	0.000000

  
  ERROR 209: undefined object 12.427351 at line 40043 of [CONDUIT] section:
  5219007		G6077338	12.427351	0.010000	0.000000	0.000000	0.000000	0.000000

  
  ERROR 209: undefined object 11.717646 at line 40045 of [CONDUIT] section:
  5219008		5219049	11.717646	0.010000	0.000000	0.000000	0.000000	0.000000

  
  ERROR 211: invalid number  at line 49417 of [XSECT] section:
  5007159	CIRCULAR	0.000000	0.000000	0.000000	0.000000	1	0

  
  ERROR 211: invalid number  at line 49418 of [XSECT] section:
  5007160	CIRCULAR	0.000000	0.000000	0.000000	0.000000	1	0

  
  ERROR 211: invalid number  at line 49432 of [XSECT] section:
  5008051	CIRCULAR	0.000000	0.000000	0.000000	0.000000	1	0

  
  ERROR 211: invalid number  at line 49433 of [XSECT] section:
  5008052	CIRCULAR	0.000000	0.000000	0.000000	0.000000	1	0

  
  ERROR 211: invalid number  at line 49434 of [XSECT] section:
  5008053	CIRCULAR	0.000000	0.000000	0.000000	0.000000	1	0

  
  ERROR 211: invalid number  at line 49435 of [XSECT] section:
  5008054	CIRCULAR	0.000000	0.000000	0.000000	0.000000	1	0

  
  ERROR 211: invalid number  at line 49486 of [XSECT] section:
  5018011	CIRCULAR	0.000000	0.000000	0.000000	0.000000	1	0

  
  ERROR 211: invalid number  at line 49488 of [XSECT] section:
  5019830	CIRCULAR	0.000000	0.000000	0.000000	0.000000	1	0

  
  ERROR 211: invalid number  at line 49489 of [XSECT] section:
  5019831	CIRCULAR	0.000000	0.000000	0.000000	0.000000	1	0

  
  ERROR 211: invalid number  at line 49490 of [XSECT] section:
  5019832	CIRCULAR	0.000000	0.000000	0.000000	0.000000	1	0

  
  ERROR 211: invalid number  at line 49491 of [XSECT] section:
  5019833	CIRCULAR	0.000000	0.000000	0.000000	0.000000	1	0

  
  ERROR 211: invalid number  at line 49492 of [XSECT] section:
  5019834	CIRCULAR	0.000000	0.000000	0.000000	0.000000	1	0

  
  ERROR 211: invalid number  at line 49529 of [XSECT] section:
  5024257	CIRCULAR	0.000000	0.000000	0.000000	0.000000	1	0

  
  ERROR 211: invalid number  at line 49649 of [XSECT] section:
  5057010	CIRCULAR	0.000000	0.000000	0.000000	0.000000	1	0

  
  ERROR 211: invalid number  at line 49650 of [XSECT] section:
  5057011	CIRCULAR	0.000000	0.000000	0.000000	0.000000	1	0

  
  ERROR 211: invalid number  at line 49651 of [XSECT] section:
  5057012	CIRCULAR	0.000000	0.000000	0.000000	0.000000	1	0

  
  ERROR 211: invalid number  at line 49656 of [XSECT] section:
  5063484	CIRCULAR	0.000000	0.000000	0.000000	0.000000	1	0

  
  ERROR 211: invalid number  at line 49657 of [XSECT] section:
  5063485	CIRCULAR	0.000000	0.000000	0.000000	0.000000	1	0

  
  ERROR 211: invalid number  at line 49658 of [XSECT] section:
  5063486	CIRCULAR	0.000000	0.000000	0.000000	0.000000	1	0

  
  ERROR 211: invalid number  at line 49659 of [XSECT] section:
  5063487	CIRCULAR	0.000000	0.000000	0.000000	0.000000	1	0

  
  ERROR 211: invalid number  at line 49660 of [XSECT] section:
  5063488	CIRCULAR	0.000000	0.000000	0.000000	0.000000	1	0

  
  ERROR 211: invalid number  at line 49661 of [XSECT] section:
  5063489	CIRCULAR	0.000000	0.000000	0.000000	0.000000	1	0

  
  ERROR 211: invalid number  at line 49662 of [XSECT] section:
  5063490	CIRCULAR	0.000000	0.000000	0.000000	0.000000	1	0

  
  ERROR 211: invalid number  at line 49663 of [XSECT] section:
  5063491	CIRCULAR	0.000000	0.000000	0.000000	0.000000	1	0

  
  ERROR 211: invalid number  at line 49664 of [XSECT] section:
  5063492	CIRCULAR	0.000000	0.000000	0.000000	0.000000	1	0

  
  ERROR 211: invalid number  at line 49665 of [XSECT] section:
  5063493	CIRCULAR	0.000000	0.000000	0.000000	0.000000	1	0

  
  ERROR 211: invalid number  at line 49666 of [XSECT] section:
  5063494	CIRCULAR	0.000000	0.000000	0.000000	0.000000	1	0

  
  ERROR 211: invalid number  at line 49667 of [XSECT] section:
  5063495	CIRCULAR	0.000000	0.000000	0.000000	0.000000	1	0

  
  ERROR 211: invalid number  at line 49668 of [XSECT] section:
  5063496	CIRCULAR	0.000000	0.000000	0.000000	0.000000	1	0

  
  ERROR 211: invalid number  at line 49669 of [XSECT] section:
  5063497	CIRCULAR	0.000000	0.000000	0.000000	0.000000	1	0

  
  ERROR 211: invalid number  at line 49670 of [XSECT] section:
  5063498	CIRCULAR	0.000000	0.000000	0.000000	0.000000	1	0

  
  ERROR 211: invalid number  at line 49671 of [XSECT] section:
  5063499	CIRCULAR	0.000000	0.000000	0.000000	0.000000	1	0

  
  ERROR 211: invalid number  at line 49672 of [XSECT] section:
  5063500	CIRCULAR	0.000000	0.000000	0.000000	0.000000	1	0

  
  ERROR 211: invalid number  at line 49673 of [XSECT] section:
  5063501	CIRCULAR	0.000000	0.000000	0.000000	0.000000	1	0

  
  Maximum error count exceeded.

  Analysis begun on:  Fri Nov 29 09:09:26 2019
  Analysis ended on:  Fri Nov 29 09:09:26 2019
  Total elapsed time: < 1 sec