
  EPA STORM WATER MANAGEMENT MODEL - VERSION 5.1 (Build 5.1.013)
  --------------------------------------------------------------

  WARNING 04: minimum elevation drop used for Conduit 500315
  WARNING 04: minimum elevation drop used for Conduit 501471
  WARNING 04: minimum elevation drop used for Conduit 502387
  WARNING 04: minimum elevation drop used for Conduit 502780
  WARNING 04: minimum elevation drop used for Conduit 503913
  WARNING 04: minimum elevation drop used for Conduit 504377
  WARNING 04: minimum elevation drop used for Conduit 505703
  WARNING 04: minimum elevation drop used for Conduit 506493
  WARNING 04: minimum elevation drop used for Conduit 507799
  WARNING 04: minimum elevation drop used for Conduit 508730
  WARNING 04: minimum elevation drop used for Conduit 511021
  WARNING 04: minimum elevation drop used for Conduit 511126
  WARNING 04: minimum elevation drop used for Conduit 511166
  WARNING 04: minimum elevation drop used for Conduit 511168
  WARNING 04: minimum elevation drop used for Conduit 511179
  WARNING 04: minimum elevation drop used for Conduit 511808
  WARNING 04: minimum elevation drop used for Conduit 511809
  WARNING 04: minimum elevation drop used for Conduit 511813
  WARNING 04: minimum elevation drop used for Conduit 511814
  WARNING 04: minimum elevation drop used for Conduit 511815
  WARNING 04: minimum elevation drop used for Conduit 512530
  WARNING 08: elevation drop exceeds length for Conduit 513073
  WARNING 08: elevation drop exceeds length for Conduit 513535
  WARNING 08: elevation drop exceeds length for Conduit 513537
  WARNING 04: minimum elevation drop used for Conduit 513599
  WARNING 08: elevation drop exceeds length for Conduit 514291
  WARNING 08: elevation drop exceeds length for Conduit 514292
  WARNING 04: minimum elevation drop used for Conduit 514716
  WARNING 04: minimum elevation drop used for Conduit 514888
  WARNING 08: elevation drop exceeds length for Conduit 514960
  WARNING 08: elevation drop exceeds length for Conduit 514971
  WARNING 02: maximum depth increased for Node 2204
  WARNING 02: maximum depth increased for Node 2232
  WARNING 02: maximum depth increased for Node 2337
  WARNING 02: maximum depth increased for Node 2340
  WARNING 02: maximum depth increased for Node 2342
  WARNING 02: maximum depth increased for Node 2443
  WARNING 02: maximum depth increased for Node 2612
  WARNING 02: maximum depth increased for Node 2691
  WARNING 02: maximum depth increased for Node 2692
  WARNING 02: maximum depth increased for Node 2693
  WARNING 02: maximum depth increased for Node 2696
  WARNING 02: maximum depth increased for Node 2702
  WARNING 02: maximum depth increased for Node 2715
  WARNING 02: maximum depth increased for Node 3010
  WARNING 02: maximum depth increased for Node 3274
  WARNING 02: maximum depth increased for Node 5836
  WARNING 02: maximum depth increased for Node 6182
  WARNING 02: maximum depth increased for Node 6230
  WARNING 02: maximum depth increased for Node 6252
  WARNING 02: maximum depth increased for Node 6262
  WARNING 02: maximum depth increased for Node 6266
  WARNING 02: maximum depth increased for Node 6277
  WARNING 02: maximum depth increased for Node 6298
  WARNING 02: maximum depth increased for Node 6397
  WARNING 02: maximum depth increased for Node 6573
  WARNING 02: maximum depth increased for Node 7354
  WARNING 02: maximum depth increased for Node 7570
  WARNING 02: maximum depth increased for Node 7790
  WARNING 02: maximum depth increased for Node 7814
  WARNING 02: maximum depth increased for Node 8268
  WARNING 02: maximum depth increased for Node 8602
  WARNING 02: maximum depth increased for Node 8930
  WARNING 02: maximum depth increased for Node 9088
  
  *********************************************************
  NOTE: The summary statistics displayed in this report are
  based on results found at every computational time step,  
  not just on results from each reporting time step.
  *********************************************************
  
  ****************
  Analysis Options
  ****************
  Flow Units ............... LPS
  Process Models:
    Rainfall/Runoff ........ NO
    RDII ................... NO
    Snowmelt ............... NO
    Groundwater ............ NO
    Flow Routing ........... YES
    Ponding Allowed ........ NO
    Water Quality .......... NO
  Flow Routing Method ...... DYNWAVE
  Surcharge Method ......... EXTRAN
  Starting Date ............ 01/01/2002 00:00:00
  Ending Date .............. 01/01/2002 12:00:00
  Antecedent Dry Days ...... 5.0
  Report Time Step ......... 00:05:00
  Routing Time Step ........ 300.00 sec
  Variable Time Step ....... YES
  Maximum Trials ........... 8
  Number of Threads ........ 1
  Head Tolerance ........... 0.001500 m
  
  
  **************************        Volume        Volume
  Flow Routing Continuity        hectare-m      10^6 ltr
  **************************     ---------     ---------
  Dry Weather Inflow .......         0.154         1.540
  Wet Weather Inflow .......         0.000         0.000
  Groundwater Inflow .......         0.000         0.000
  RDII Inflow ..............         0.000         0.000
  External Inflow ..........         0.000         0.000
  External Outflow .........         0.080         0.802
  Flooding Loss ............         0.000         0.000
  Evaporation Loss .........         0.000         0.000
  Exfiltration Loss ........         0.000         0.000
  Initial Stored Volume ....         0.000         0.004
  Final Stored Volume ......         0.072         0.725
  Continuity Error (%) .....         1.076
  
  
  *************************
  Highest Continuity Errors
  *************************
  Node 2247 (100.00%)
  Node 2480 (100.00%)
  Node 2746 (100.00%)
  Node 5817 (100.00%)
  Node 5819 (100.00%)
  
  
  ***************************
  Time-Step Critical Elements
  ***************************
  Link 508730 (79.09%)
  Link 512612 (20.11%)
  
  
  ********************************
  Highest Flow Instability Indexes
  ********************************
  Link 511754 (26)
  Link 500624 (13)
  Link 502401 (5)
  Link 502398 (4)
  Link 513409 (4)
  
  
  *************************
  Routing Time Step Summary
  *************************
  Minimum Time Step           :     1.26 sec
  Average Time Step           :     7.07 sec
  Maximum Time Step           :    11.71 sec
  Percent in Steady State     :     0.00
  Average Iterations per Step :     2.84
  Percent Not Converging      :     3.75
  
  
  ******************
  Node Depth Summary
  ******************
  
  ---------------------------------------------------------------------------------
                                 Average  Maximum  Maximum  Time of Max    Reported
                                   Depth    Depth      HGL   Occurrence   Max Depth
  Node                 Type       Meters   Meters   Meters  days hr:min      Meters
  ---------------------------------------------------------------------------------
  10018                JUNCTION     0.00     0.00    94.58     0  10:00        0.00
  10019                JUNCTION     0.00     0.00    92.65     0  10:00        0.00
  10020                JUNCTION     0.00     0.00    91.03     0  10:00        0.00
  10021                JUNCTION     0.00     0.00    97.02     0  00:00        0.00
  10029                JUNCTION     0.00     0.00   108.23     0  11:47        0.00
  10030                JUNCTION     0.00     0.00    72.51     0  05:55        0.00
  10044                JUNCTION     0.00     0.00    70.78     0  02:08        0.00
  10045                JUNCTION     0.02     0.02    53.77     0  10:48        0.02
  10089                JUNCTION     0.00     0.00   126.14     0  00:00        0.00
  10249                JUNCTION     0.02     0.11   116.67     0  12:00        0.11
  10250                JUNCTION     0.24     0.58   116.67     0  11:54        0.57
  10251                JUNCTION     0.00     0.00   117.26     0  08:00        0.00
  10256                JUNCTION     0.00     0.00   115.51     0  08:00        0.00
  10262                JUNCTION     0.00     0.00   114.67     0  00:00        0.00
  10272                JUNCTION     0.00     0.00   116.43     0  00:00        0.00
  10273                JUNCTION     0.00     0.00   116.28     0  00:00        0.00
  10274                JUNCTION     0.00     0.00   116.34     0  00:00        0.00
  10278                JUNCTION     0.00     0.00   116.06     0  08:00        0.00
  10310                JUNCTION     0.00     0.00    93.85     0  00:00        0.00
  10311                JUNCTION     0.00     0.00    93.33     0  00:00        0.00
  10312                JUNCTION     0.00     0.00    92.25     0  00:00        0.00
  10313                JUNCTION     0.00     0.00    93.05     0  00:00        0.00
  10315                JUNCTION     0.00     0.00    92.79     0  10:46        0.00
  10316                JUNCTION     0.02     0.03    90.92     0  08:08        0.03
  10318                JUNCTION     0.00     0.00    94.17     0  00:00        0.00
  10319                JUNCTION     0.00     0.00    94.02     0  00:00        0.00
  10320                JUNCTION     0.00     0.00    93.81     0  08:00        0.00
  10321                JUNCTION     0.03     0.04    91.48     0  08:06        0.04
  10322                JUNCTION     0.04     0.05    91.37     0  08:07        0.05
  10324                JUNCTION     0.00     0.00    91.61     0  00:00        0.00
  10329                JUNCTION     0.00     0.00    59.73     0  00:00        0.00
  10340                JUNCTION     0.01     0.02   109.66     0  10:06        0.02
  10341                JUNCTION     0.01     0.02   108.92     0  10:08        0.02
  10342                JUNCTION     0.01     0.02   109.32     0  10:07        0.02
  1036                 JUNCTION     0.00     0.00    78.22     0  12:00        0.00
  1039                 JUNCTION     0.00     0.00    67.33     0  08:00        0.00
  10399                JUNCTION     0.00     0.00   161.35     0  07:33        0.00
  1040                 JUNCTION     0.00     0.00    65.90     0  00:00        0.00
  10400                JUNCTION     0.00     0.00   162.57     0  07:01        0.00
  10401                JUNCTION     0.00     0.00   164.95     0  00:00        0.00
  10402                JUNCTION     0.00     0.00   163.16     0  10:29        0.00
  10404                JUNCTION     0.00     0.00    97.50     0  00:00        0.00
  10405                JUNCTION     0.00     0.00    97.49     0  00:00        0.00
  10406                JUNCTION     0.00     0.00    97.38     0  00:00        0.00
  10407                JUNCTION     0.00     0.00    78.58     0  00:00        0.00
  1042                 JUNCTION     0.00     0.00    55.90     0  00:07        0.00
  10438                JUNCTION     0.00     0.00   112.33     0  00:00        0.00
  10439                JUNCTION     0.00     0.00   112.16     0  00:00        0.00
  1045                 JUNCTION     0.00     0.00    85.52     0  03:38        0.00
  1046                 JUNCTION     0.00     0.00    59.68     0  06:09        0.00
  1047                 JUNCTION     0.01     0.01    73.77     0  10:57        0.01
  10525                JUNCTION     0.01     0.01    91.88     0  09:02        0.01
  10625                JUNCTION     0.00     0.00    64.05     0  00:00        0.00
  10626                JUNCTION     0.00     0.00    61.86     0  10:51        0.00
  10627                JUNCTION     0.00     0.00    59.12     0  06:48        0.00
  10628                JUNCTION     0.00     0.00    58.06     0  11:37        0.00
  10629                JUNCTION     0.00     0.00    56.94     0  08:05        0.00
  10630                JUNCTION     0.00     0.00    56.75     0  11:52        0.00
  10631                JUNCTION     0.00     0.00    67.06     0  00:00        0.00
  10632                JUNCTION     0.00     0.00    58.69     0  00:00        0.00
  10633                JUNCTION     0.00     0.00    65.88     0  10:12        0.00
  10639                JUNCTION     0.00     0.00    65.38     0  00:00        0.00
  10640                JUNCTION     0.00     0.00   119.67     0  11:00        0.00
  10641                JUNCTION     0.00     0.00   114.94     0  11:00        0.00
  10642                JUNCTION     0.01     0.02   120.70     0  11:00        0.02
  10643                JUNCTION     0.37     0.94   121.98     0  09:04        0.94
  1066                 JUNCTION     0.01     0.01    56.26     0  08:00        0.01
  1067                 JUNCTION     0.00     0.00    63.94     0  10:45        0.00
  1068                 JUNCTION     0.00     0.00    73.77     0  08:00        0.00
  1069                 JUNCTION     0.00     0.00    69.07     0  08:00        0.00
  10697                JUNCTION     0.00     0.00   104.75     0  08:00        0.00
  10698                JUNCTION     0.00     0.00   104.38     0  08:00        0.00
  1070                 JUNCTION     0.01     0.01    83.22     0  08:00        0.01
  1071                 JUNCTION     0.00     0.00    84.07     0  08:00        0.00
  10734                JUNCTION     0.00     0.00   173.74     0  08:00        0.00
  10735                JUNCTION     0.19     0.36    98.69     0  07:28        0.35
  10739                JUNCTION     0.01     0.01   143.76     0  08:00        0.01
  10740                JUNCTION     0.00     0.00   164.63     0  00:00        0.00
  10741                JUNCTION     0.00     0.00   163.09     0  00:00        0.00
  10742                JUNCTION     0.00     0.00   161.21     0  00:00        0.00
  10743                JUNCTION     0.00     0.00   161.07     0  00:00        0.00
  10744                JUNCTION     0.01     0.01    99.69     0  07:59        0.01
  10757                JUNCTION     0.04     0.04    99.54     0  08:00        0.04
  10758                JUNCTION     0.00     0.00    81.05     0  07:59        0.00
  10766                JUNCTION     0.00     0.00     7.50     0  01:19        0.00
  10768                JUNCTION     0.00     0.00   161.35     0  00:00        0.00
  10769                JUNCTION     0.00     0.00   160.05     0  07:56        0.00
  10770                JUNCTION     0.00     0.00   156.82     0  00:00        0.00
  10771                JUNCTION     0.00     0.00   161.65     0  00:00        0.00
  10772                JUNCTION     0.00     0.00   156.50     0  07:45        0.00
  10773                JUNCTION     0.00     0.00   164.85     0  00:00        0.00
  10794                JUNCTION     0.00     0.00    95.80     0  00:00        0.00
  10795                JUNCTION     0.00     0.00    88.63     0  00:00        0.00
  10796                JUNCTION     0.00     0.00    82.50     0  00:00        0.00
  10797                JUNCTION     0.00     0.00    71.18     0  00:00        0.00
  10798                JUNCTION     0.00     0.00    74.68     0  00:00        0.00
  10799                JUNCTION     0.02     0.02    70.38     0  08:00        0.02
  10806                JUNCTION     0.00     0.00    88.73     0  00:00        0.00
  10807                JUNCTION     0.00     0.00    88.08     0  00:00        0.00
  10808                JUNCTION     0.00     0.00    87.59     0  00:00        0.00
  10809                JUNCTION     0.00     0.00    85.01     0  00:00        0.00
  10811                JUNCTION     0.00     0.00    80.59     0  00:00        0.00
  10812                JUNCTION     0.00     0.00    81.67     0  00:00        0.00
  10814                JUNCTION     0.00     0.00    81.06     0  00:00        0.00
  10817                JUNCTION     0.00     0.00    88.96     0  00:00        0.00
  10818                JUNCTION     0.00     0.00    87.05     0  00:00        0.00
  10819                JUNCTION     0.00     0.00    85.71     0  00:00        0.00
  10820                JUNCTION     0.00     0.00    81.81     0  00:00        0.00
  10821                JUNCTION     0.00     0.00    94.84     0  00:00        0.00
  10837                JUNCTION     0.00     0.00    61.13     0  00:00        0.00
  10850                JUNCTION     0.00     0.00    80.50     0  00:00        0.00
  10851                JUNCTION     0.00     0.00    79.60     0  00:00        0.00
  10852                JUNCTION     0.00     0.00    12.82     0  02:07        0.00
  10853                JUNCTION     0.01     0.01    79.93     0  12:00        0.01
  10854                JUNCTION     0.00     0.00    81.31     0  00:00        0.00
  10856                JUNCTION     0.00     0.00   102.64     0  00:00        0.00
  10857                JUNCTION     0.00     0.00   123.49     0  00:00        0.00
  10858                JUNCTION     0.00     0.00    63.50     0  08:00        0.00
  10860                JUNCTION     0.00     0.00   103.54     0  00:00        0.00
  10862                JUNCTION     0.00     0.00    15.65     0  00:00        0.00
  10865                JUNCTION     0.01     0.01    63.81     0  08:00        0.01
  10867                JUNCTION     0.01     0.01   129.28     0  08:00        0.01
  10871                JUNCTION     0.00     0.00   115.92     0  00:00        0.00
  10879                JUNCTION     0.01     0.01    25.01     0  02:26        0.01
  10883                JUNCTION     0.00     0.01   109.91     0  07:47        0.01
  10884                JUNCTION     0.00     0.00   115.60     0  00:00        0.00
  10885                JUNCTION     0.01     0.01   107.74     0  10:47        0.01
  10891                JUNCTION     0.00     0.00    51.40     0  02:39        0.00
  10895                JUNCTION     0.00     0.00   111.93     0  00:00        0.00
  10901                JUNCTION     0.00     0.00    94.34     0  00:00        0.00
  10902                JUNCTION     0.00     0.00    94.28     0  00:00        0.00
  10903                JUNCTION     0.00     0.00    94.87     0  00:00        0.00
  10904                JUNCTION     0.00     0.00    94.88     0  00:00        0.00
  10905                JUNCTION     0.00     0.00    46.61     0  02:05        0.00
  10907                JUNCTION     0.16     0.18   102.89     0  00:50        0.17
  10915                JUNCTION     0.00     0.00   115.36     0  00:00        0.00
  10917                JUNCTION     0.00     0.01    72.56     0  12:00        0.01
  10918                JUNCTION     0.01     0.02    73.42     0  10:13        0.02
  10921                JUNCTION     0.00     0.00   122.28     0  11:44        0.00
  10922                JUNCTION     0.00     0.00   122.13     0  00:00        0.00
  10924                JUNCTION     0.01     0.02    90.72     0  09:10        0.02
  10927                JUNCTION     0.00     0.00    86.59     0  00:00        0.00
  10928                JUNCTION     0.00     0.00    87.46     0  00:00        0.00
  10935                JUNCTION     0.00     0.00   101.29     0  00:00        0.00
  10940                JUNCTION     0.00     0.00   111.70     0  09:00        0.00
  10945                JUNCTION     0.00     0.00   121.41     0  00:00        0.00
  10947                JUNCTION     0.00     0.00   106.99     0  00:00        0.00
  10954                JUNCTION     0.00     0.00   119.20     0  12:00        0.00
  10955                JUNCTION     0.00     0.00   120.55     0  12:00        0.00
  10956                JUNCTION     0.00     0.00   120.14     0  12:00        0.00
  10961                JUNCTION     0.00     0.01    83.84     0  07:46        0.01
  10962                JUNCTION     0.01     0.01    79.03     0  08:00        0.01
  10968                JUNCTION     0.00     0.01   118.88     0  08:00        0.01
  10970                JUNCTION     0.00     0.00   109.40     0  11:00        0.00
  10974                JUNCTION     0.00     0.00   105.96     0  00:00        0.00
  1098                 JUNCTION     0.00     0.00    95.16     0  08:00        0.00
  10982                JUNCTION     0.00     0.00   116.69     0  00:00        0.00
  11032                JUNCTION     0.01     0.02    90.40     0  09:49        0.02
  11033                JUNCTION     0.00     0.00    95.73     0  00:00        0.00
  11034                JUNCTION     0.04     0.06    98.11     0  08:08        0.06
  11035                JUNCTION     0.00     0.00    97.28     0  00:00        0.00
  11036                JUNCTION     0.00     0.00    98.66     0  00:00        0.00
  11037                JUNCTION     0.00     0.00   100.98     0  00:00        0.00
  11038                JUNCTION     0.00     0.00   102.22     0  00:00        0.00
  11039                JUNCTION     0.00     0.00   100.72     0  00:00        0.00
  11040                JUNCTION     0.00     0.00    94.16     0  00:00        0.00
  11041                JUNCTION     0.00     0.00    90.16     0  00:00        0.00
  11042                JUNCTION     0.00     0.00    90.91     0  00:00        0.00
  11045                JUNCTION     0.05     0.07    95.08     0  08:06        0.07
  11046                JUNCTION     0.00     0.00    95.44     0  00:00        0.00
  1109                 JUNCTION     0.00     0.00    95.99     0  07:12        0.00
  1113                 JUNCTION     0.00     0.00    95.04     0  12:00        0.00
  1114                 JUNCTION     0.00     0.00    94.34     0  12:00        0.00
  1115                 JUNCTION     0.00     0.00    96.80     0  11:58        0.00
  1116                 JUNCTION     0.00     0.00    88.54     0  11:33        0.00
  1117                 JUNCTION     0.00     0.00    82.47     0  08:00        0.00
  1118                 JUNCTION     0.00     0.00    85.65     0  00:00        0.00
  1119                 JUNCTION     0.00     0.00    80.08     0  09:47        0.00
  1120                 JUNCTION     0.00     0.00    80.10     0  12:00        0.00
  1121                 JUNCTION     0.00     0.00    75.00     0  08:00        0.00
  1122                 JUNCTION     0.00     0.00    73.27     0  08:00        0.00
  1123                 JUNCTION     0.00     0.00    73.46     0  08:00        0.00
  1124                 JUNCTION     0.00     0.01    63.65     0  09:54        0.01
  1125                 JUNCTION     0.00     0.00    75.04     0  11:00        0.00
  1126                 JUNCTION     0.00     0.01    73.19     0  12:00        0.01
  1127                 JUNCTION     0.00     0.00    73.75     0  00:00        0.00
  1128                 JUNCTION     0.00     0.00    70.12     0  08:00        0.00
  1129                 JUNCTION     0.00     0.00   105.22     0  08:00        0.00
  1130                 JUNCTION     0.00     0.00   106.80     0  07:47        0.00
  1131                 JUNCTION     0.00     0.00   110.48     0  07:57        0.00
  1132                 JUNCTION     0.01     0.01    97.53     0  08:00        0.01
  1133                 JUNCTION     0.01     0.01    95.71     0  08:00        0.01
  1134                 JUNCTION     0.00     0.00    82.91     0  08:00        0.00
  1135                 JUNCTION     0.00     0.00    93.75     0  08:00        0.00
  1136                 JUNCTION     0.00     0.01    83.16     0  07:48        0.01
  1137                 JUNCTION     0.00     0.00    74.75     0  10:00        0.00
  1138                 JUNCTION     0.00     0.00    78.58     0  08:00        0.00
  1139                 JUNCTION     0.00     0.00    74.21     0  08:00        0.00
  1140                 JUNCTION     0.00     0.00    78.33     0  08:00        0.00
  1141                 JUNCTION     0.00     0.00    81.81     0  08:00        0.00
  1142                 JUNCTION     0.00     0.00   108.05     0  00:00        0.00
  1143                 JUNCTION     0.00     0.00    96.44     0  00:00        0.00
  1144                 JUNCTION     0.01     0.01    86.09     0  08:00        0.01
  1145                 JUNCTION     0.00     0.00    96.50     0  00:00        0.00
  1146                 JUNCTION     0.01     0.01   203.80     0  08:00        0.01
  1147                 JUNCTION     0.00     0.00   110.14     0  08:00        0.00
  1148                 JUNCTION     0.00     0.00   142.37     0  07:57        0.00
  1149                 JUNCTION     0.00     0.00    78.70     0  07:51        0.00
  1150                 JUNCTION     0.00     0.00    96.73     0  08:00        0.00
  1151                 JUNCTION     0.00     0.00    88.90     0  07:51        0.00
  1152                 JUNCTION     0.00     0.01    96.41     0  07:58        0.01
  1153                 JUNCTION     0.00     0.01    95.48     0  08:00        0.01
  1154                 JUNCTION     0.00     0.00    89.26     0  07:29        0.00
  1155                 JUNCTION     0.00     0.00    81.80     0  07:48        0.00
  1156                 JUNCTION     0.01     0.01   100.93     0  08:00        0.01
  1157                 JUNCTION     0.01     0.01    99.86     0  08:00        0.01
  1158                 JUNCTION     0.01     0.01   100.77     0  08:00        0.01
  1159                 JUNCTION     0.00     0.00   103.03     0  07:46        0.00
  1160                 JUNCTION     0.00     0.01   103.73     0  08:00        0.01
  1161                 JUNCTION     0.00     0.00   109.62     0  07:38        0.00
  1162                 JUNCTION     0.00     0.01   124.13     0  08:00        0.01
  1163                 JUNCTION     0.00     0.00   121.66     0  07:52        0.00
  1164                 JUNCTION     0.00     0.00   144.28     0  07:57        0.00
  1165                 JUNCTION     0.00     0.00   143.66     0  07:59        0.00
  1166                 JUNCTION     0.00     0.00   149.51     0  08:00        0.00
  1167                 JUNCTION     0.00     0.01   169.36     0  08:00        0.01
  1168                 JUNCTION     0.00     0.00   137.12     0  07:59        0.00
  1169                 JUNCTION     0.00     0.00   126.30     0  07:52        0.00
  1170                 JUNCTION     0.00     0.01   148.90     0  08:00        0.01
  1171                 JUNCTION     0.00     0.00    78.34     0  07:18        0.00
  1180                 JUNCTION     0.00     0.00    81.97     0  00:00        0.00
  1181                 JUNCTION     0.00     0.01   183.87     0  08:00        0.01
  1182                 JUNCTION     0.00     0.00   172.26     0  07:34        0.00
  1183                 JUNCTION     0.00     0.00   176.27     0  07:49        0.00
  1194                 JUNCTION     0.00     0.00   194.06     0  08:00        0.00
  1195                 JUNCTION     0.00     0.01   201.60     0  07:26        0.01
  1196                 JUNCTION     0.01     0.02   215.72     0  08:00        0.02
  1197                 JUNCTION     0.00     0.00   220.04     0  07:58        0.00
  1198                 JUNCTION     0.00     0.00   218.99     0  08:00        0.00
  1199                 JUNCTION     0.00     0.00   217.94     0  07:35        0.00
  1302                 JUNCTION     0.01     0.01   106.90     0  08:00        0.01
  1309                 JUNCTION     0.00     0.01   106.54     0  07:55        0.01
  1310                 JUNCTION     0.01     0.01   105.97     0  08:00        0.01
  1311                 JUNCTION     0.01     0.01   104.88     0  08:00        0.01
  1312                 JUNCTION     0.01     0.01   102.91     0  08:00        0.01
  1313                 JUNCTION     0.01     0.01   104.05     0  08:00        0.01
  1322                 JUNCTION     0.09     0.16    58.80     0  10:26        0.16
  1323                 JUNCTION     0.01     0.02   119.80     0  08:00        0.02
  1324                 JUNCTION     0.01     0.01   127.32     0  08:00        0.01
  1325                 JUNCTION     0.00     0.00   102.94     0  07:59        0.00
  1339                 JUNCTION     0.03     0.03    83.16     0  09:46        0.03
  1340                 JUNCTION     0.02     0.02    82.94     0  09:49        0.02
  1341                 JUNCTION     0.02     0.02    81.15     0  09:46        0.02
  1342                 JUNCTION     0.03     0.03    83.30     0  09:36        0.03
  1346                 JUNCTION     0.00     0.01   161.07     0  07:14        0.01
  1349                 JUNCTION     0.00     0.01   109.94     0  11:35        0.01
  1350                 JUNCTION     0.64     1.27   110.58     0  11:57        1.27
  1350A                JUNCTION     0.51     1.13   110.58     0  11:19        1.13
  1351                 JUNCTION     0.01     0.01   105.88     0  08:00        0.01
  1362                 JUNCTION     0.21     0.30    76.42     0  06:13        0.30
  1382                 JUNCTION     0.00     0.00   124.37     0  00:00        0.00
  1383                 JUNCTION     0.00     0.00   121.21     0  00:00        0.00
  1392                 JUNCTION     0.02     0.03   104.95     0  08:00        0.03
  1394                 JUNCTION     0.02     0.03   111.98     0  08:00        0.03
  1395                 JUNCTION     0.00     0.00   114.89     0  00:00        0.00
  1406                 JUNCTION     0.01     0.01   109.58     0  08:00        0.01
  1407                 JUNCTION     0.00     0.00   133.07     0  00:00        0.00
  1408                 JUNCTION     0.00     0.01   126.72     0  11:02        0.01
  1409                 JUNCTION     0.00     0.00   125.75     0  11:07        0.00
  1410                 JUNCTION     0.00     0.00   112.59     0  12:00        0.00
  1411                 JUNCTION     0.00     0.01   116.62     0  11:56        0.01
  1412                 JUNCTION     0.00     0.00    98.62     0  08:00        0.00
  1413                 JUNCTION     0.01     0.01    95.28     0  08:00        0.01
  1414                 JUNCTION     0.00     0.01    95.93     0  07:58        0.01
  1415                 JUNCTION     0.01     0.01    93.39     0  08:00        0.01
  1419                 JUNCTION     0.00     0.01    87.15     0  11:58        0.01
  1420                 JUNCTION     0.01     0.01    79.60     0  12:00        0.01
  1421                 JUNCTION     0.00     0.00    85.85     0  11:51        0.00
  1422                 JUNCTION     0.01     0.02    97.63     0  09:49        0.02
  1424                 JUNCTION     0.00     0.00   104.15     0  00:00        0.00
  1425                 JUNCTION     0.01     0.02   111.46     0  12:00        0.02
  1426                 JUNCTION     0.00     0.01   111.96     0  12:00        0.01
  1427                 JUNCTION     0.00     0.00   100.96     0  00:00        0.00
  1428                 JUNCTION     0.00     0.01   101.99     0  08:00        0.01
  1433                 JUNCTION     0.00     0.00    99.64     0  00:00        0.00
  1434                 JUNCTION     0.00     0.00    99.12     0  00:00        0.00
  1435                 JUNCTION     0.00     0.00    98.67     0  00:00        0.00
  18                   JUNCTION     0.00     0.00    82.33     0  00:00        0.00
  19                   JUNCTION     0.02     0.03    83.79     0  09:36        0.03
  2                    JUNCTION     0.01     0.01   105.00     0  08:00        0.01
  20                   JUNCTION     0.00     0.01   171.22     0  07:03        0.01
  21                   JUNCTION     0.00     0.00   104.76     0  07:30        0.00
  2117                 JUNCTION     0.01     0.01   110.18     0  12:00        0.01
  2118                 JUNCTION     0.01     0.01   110.42     0  12:00        0.01
  2119                 JUNCTION     0.00     0.00   112.26     0  12:00        0.00
  2179                 JUNCTION     0.01     0.01   134.18     0  08:00        0.01
  2180                 JUNCTION     0.03     0.03   132.69     0  08:00        0.03
  2181                 JUNCTION     0.02     0.02   132.23     0  08:00        0.02
  2182                 JUNCTION     0.01     0.01   131.74     0  08:00        0.01
  2183                 JUNCTION     0.02     0.02   131.01     0  08:00        0.02
  2184                 JUNCTION     0.01     0.01   130.29     0  08:00        0.01
  2185                 JUNCTION     0.01     0.01   129.54     0  08:00        0.01
  2186                 JUNCTION     0.02     0.02   127.80     0  08:00        0.02
  2187                 JUNCTION     0.02     0.02   130.18     0  08:00        0.02
  2188                 JUNCTION     0.00     0.00   132.94     0  12:00        0.00
  2189                 JUNCTION     0.01     0.01   128.66     0  10:00        0.01
  219                  JUNCTION     0.02     0.02   134.20     0  08:00        0.02
  2190                 JUNCTION     0.01     0.01   133.14     0  08:00        0.01
  2191                 JUNCTION     0.01     0.02   132.98     0  08:00        0.02
  2192                 JUNCTION     0.01     0.01   133.28     0  08:00        0.01
  2193                 JUNCTION     0.01     0.01   133.59     0  08:00        0.01
  2194                 JUNCTION     0.01     0.01   125.32     0  08:00        0.01
  2195                 JUNCTION     0.03     0.03   124.11     0  08:15        0.03
  2196                 JUNCTION     0.02     0.03   124.65     0  10:00        0.03
  2197                 JUNCTION     0.02     0.03   124.82     0  09:22        0.03
  2198                 JUNCTION     0.01     0.01   131.96     0  09:13        0.01
  2199                 JUNCTION     0.01     0.01   128.01     0  09:15        0.01
  22                   JUNCTION     0.01     0.01   106.45     0  08:00        0.01
  220                  JUNCTION     0.00     0.00   130.40     0  08:00        0.00
  2200                 JUNCTION     0.02     0.02   132.33     0  09:07        0.02
  2201                 JUNCTION     0.00     0.00   122.11     0  00:00        0.00
  2202                 JUNCTION     0.00     0.00   122.21     0  00:00        0.00
  2203                 JUNCTION     0.00     0.00   122.69     0  00:00        0.00
  2204                 JUNCTION     0.00     0.00   122.90     0  00:00        0.00
  2205                 JUNCTION     0.00     0.00   128.07     0  00:00        0.00
  2206                 JUNCTION     0.00     0.00   128.36     0  00:00        0.00
  2207                 JUNCTION     0.01     0.02   108.75     0  10:09        0.02
  2208                 JUNCTION     0.03     0.04   123.31     0  08:18        0.04
  2209                 JUNCTION     0.03     0.04   106.93     0  08:36        0.04
  221                  JUNCTION     0.00     0.00   136.00     0  07:42        0.00
  2210                 JUNCTION     0.03     0.04   107.19     0  08:35        0.04
  2211                 JUNCTION     0.01     0.01   108.53     0  10:11        0.01
  2212                 JUNCTION     0.02     0.02   122.44     0  08:20        0.02
  2213                 JUNCTION     0.03     0.04   115.82     0  08:21        0.04
  2214                 JUNCTION     0.02     0.02   115.08     0  08:23        0.02
  2215                 JUNCTION     0.03     0.03   106.35     0  08:40        0.03
  2216                 JUNCTION     0.03     0.04   106.67     0  08:40        0.04
  222                  JUNCTION     0.01     0.01   133.99     0  08:00        0.01
  2230                 JUNCTION     0.01     0.01   121.95     0  08:05        0.01
  2231                 JUNCTION     0.00     0.00   126.69     0  08:00        0.00
  2232                 JUNCTION     0.00     0.00   125.19     0  07:34        0.00
  2233                 JUNCTION     0.00     0.00   130.95     0  06:59        0.00
  2234                 JUNCTION     0.00     0.00   124.75     0  07:55        0.00
  2235                 JUNCTION     0.00     0.00   132.47     0  08:00        0.00
  2236                 JUNCTION     0.00     0.00   127.94     0  08:00        0.00
  2237                 JUNCTION     0.01     0.01   117.45     0  07:57        0.01
  2238                 JUNCTION     0.01     0.01   117.87     0  08:00        0.01
  2239                 JUNCTION     0.00     0.01   121.25     0  07:52        0.01
  2240                 JUNCTION     0.00     0.00   118.37     0  08:00        0.00
  2241                 JUNCTION     0.00     0.00   118.74     0  07:51        0.00
  2242                 JUNCTION     0.01     0.01   111.63     0  12:00        0.01
  2243                 JUNCTION     0.02     0.03   110.98     0  12:00        0.03
  2244                 JUNCTION     0.01     0.01   114.16     0  08:16        0.01
  2245                 JUNCTION     0.02     0.02   114.44     0  08:15        0.02
  2246                 JUNCTION     0.02     0.02   114.71     0  08:12        0.02
  2247                 JUNCTION     0.35     0.61   111.45     0  12:00        0.61
  2248                 JUNCTION     0.00     0.00   113.38     0  12:00        0.00
  2249                 JUNCTION     0.00     0.00   114.30     0  12:00        0.00
  225                  JUNCTION     0.00     0.00   128.02     0  07:53        0.00
  2250                 JUNCTION     0.01     0.02   114.89     0  09:35        0.02
  2251                 JUNCTION     0.00     0.00   115.24     0  00:00        0.00
  2252                 JUNCTION     0.00     0.00   114.69     0  12:00        0.00
  2253                 JUNCTION     0.01     0.01   115.17     0  08:00        0.01
  2254                 JUNCTION     0.01     0.02   112.60     0  08:07        0.02
  2255                 JUNCTION     0.01     0.01   113.04     0  08:10        0.01
  2256                 JUNCTION     0.01     0.01   118.16     0  08:09        0.01
  2257                 JUNCTION     0.01     0.01   112.25     0  08:10        0.01
  2258                 JUNCTION     0.00     0.00   112.28     0  00:00        0.00
  2259                 JUNCTION     0.01     0.01   121.59     0  07:47        0.01
  226                  JUNCTION     0.00     0.00   110.80     0  07:45        0.00
  2260                 JUNCTION     0.00     0.00   121.89     0  07:49        0.00
  2261                 JUNCTION     0.00     0.01   117.06     0  07:55        0.01
  2262                 JUNCTION     0.01     0.01   113.63     0  08:00        0.01
  2263                 JUNCTION     0.01     0.01   112.81     0  08:00        0.01
  2264                 JUNCTION     0.02     0.02   100.79     0  08:37        0.02
  2265                 JUNCTION     0.01     0.01   105.98     0  08:11        0.01
  2266                 JUNCTION     0.02     0.02   103.78     0  08:23        0.02
  2267                 JUNCTION     0.02     0.02   103.30     0  08:26        0.02
  2268                 JUNCTION     0.02     0.02   102.67     0  08:33        0.02
  2269                 JUNCTION     0.01     0.02   102.32     0  08:36        0.02
  227                  JUNCTION     0.00     0.00   109.61     0  07:49        0.00
  2270                 JUNCTION     0.02     0.02   102.99     0  08:29        0.02
  2271                 JUNCTION     0.00     0.01   122.51     0  08:00        0.01
  2272                 JUNCTION     0.00     0.01   124.64     0  08:00        0.01
  2273                 JUNCTION     0.00     0.00   120.50     0  08:00        0.00
  2274                 JUNCTION     0.01     0.01   120.14     0  07:18        0.01
  2275                 JUNCTION     0.00     0.00   120.76     0  00:00        0.00
  2276                 JUNCTION     0.00     0.00   121.21     0  00:00        0.00
  2277                 JUNCTION     0.00     0.00   117.70     0  07:58        0.00
  2278                 JUNCTION     0.03     0.04   103.75     0  08:50        0.04
  2279                 JUNCTION     0.01     0.01   106.03     0  08:00        0.01
  228                  JUNCTION     0.00     0.00   100.89     0  08:00        0.00
  2280                 JUNCTION     0.00     0.00   110.96     0  07:52        0.00
  2281                 JUNCTION     0.00     0.00   110.52     0  08:00        0.00
  2282                 JUNCTION     0.01     0.01   109.74     0  07:49        0.01
  2283                 JUNCTION     0.01     0.01   114.90     0  07:47        0.01
  2284                 JUNCTION     0.01     0.01   119.26     0  08:02        0.01
  2285                 JUNCTION     0.00     0.00   123.46     0  00:00        0.00
  2286                 JUNCTION     0.00     0.00   119.76     0  00:00        0.00
  2287                 JUNCTION     0.01     0.01   119.77     0  08:01        0.01
  2288                 JUNCTION     0.00     0.00   111.21     0  07:57        0.00
  2289                 JUNCTION     0.00     0.00   112.78     0  07:59        0.00
  229                  JUNCTION     0.00     0.00    89.62     0  07:54        0.00
  2290                 JUNCTION     0.00     0.00   114.23     0  08:00        0.00
  2291                 JUNCTION     0.03     0.04   104.49     0  08:46        0.04
  2292                 JUNCTION     0.02     0.03   105.56     0  08:44        0.03
  2293                 JUNCTION     0.03     0.04   106.05     0  08:42        0.04
  2294                 JUNCTION     0.00     0.01   107.76     0  08:00        0.01
  2295                 JUNCTION     0.00     0.00   115.50     0  07:49        0.00
  2296                 JUNCTION     0.00     0.00   109.89     0  07:51        0.00
  2297                 JUNCTION     0.00     0.01   106.98     0  07:59        0.01
  2298                 JUNCTION     0.00     0.00   113.39     0  08:00        0.00
  2299                 JUNCTION     0.00     0.01   111.89     0  08:00        0.01
  2300                 JUNCTION     0.00     0.00   112.18     0  08:00        0.00
  2301                 JUNCTION     0.02     0.03   101.96     0  09:48        0.03
  2302                 JUNCTION     0.03     0.04   104.17     0  08:48        0.04
  2303                 JUNCTION     0.03     0.04   103.96     0  08:50        0.04
  2304                 JUNCTION     0.03     0.04   103.49     0  08:52        0.04
  2305                 JUNCTION     0.00     0.01   107.20     0  08:00        0.01
  2306                 JUNCTION     0.00     0.00   111.56     0  08:00        0.00
  2307                 JUNCTION     0.00     0.00   109.45     0  07:04        0.00
  2308                 JUNCTION     0.00     0.00   107.66     0  07:59        0.00
  2309                 JUNCTION     0.00     0.00   113.41     0  08:00        0.00
  2310                 JUNCTION     0.00     0.00   123.38     0  07:55        0.00
  2311                 JUNCTION     0.01     0.01   105.15     0  08:01        0.01
  2312                 JUNCTION     0.02     0.03   103.96     0  08:09        0.03
  2313                 JUNCTION     0.02     0.02   101.59     0  08:57        0.02
  2314                 JUNCTION     0.03     0.04   102.37     0  08:56        0.04
  2315                 JUNCTION     0.05     0.06   103.76     0  08:16        0.06
  2316                 JUNCTION     0.00     0.00   105.34     0  07:59        0.00
  2317                 JUNCTION     0.00     0.00   109.98     0  07:52        0.00
  2318                 JUNCTION     0.00     0.00   100.65     0  08:00        0.00
  2319                 JUNCTION     0.03     0.03    83.66     0  08:27        0.03
  2320                 JUNCTION     0.02     0.02    86.48     0  08:26        0.02
  2321                 JUNCTION     0.02     0.02    90.88     0  08:25        0.02
  2322                 JUNCTION     0.02     0.03    93.62     0  08:24        0.03
  2323                 JUNCTION     0.02     0.02    95.41     0  08:24        0.02
  2324                 JUNCTION     0.09     0.12    96.18     0  08:00        0.12
  2325                 JUNCTION     0.00     0.00   107.24     0  08:00        0.00
  2326                 JUNCTION     0.00     0.00   103.31     0  07:45        0.00
  2327                 JUNCTION     0.00     0.00   100.61     0  08:00        0.00
  2328                 JUNCTION     0.03     0.04    96.16     0  08:21        0.04
  2329                 JUNCTION     0.04     0.04    95.63     0  08:23        0.04
  2330                 JUNCTION     0.00     0.00   103.69     0  08:00        0.00
  2331                 JUNCTION     0.00     0.00    98.99     0  07:55        0.00
  2332                 JUNCTION     0.00     0.00    93.91     0  07:44        0.00
  2333                 JUNCTION     0.01     0.01    88.74     0  07:58        0.01
  2334                 JUNCTION     0.05     0.06    97.89     0  09:49        0.06
  2335                 JUNCTION     0.02     0.02   101.01     0  09:48        0.02
  2336                 JUNCTION     0.06     0.07   103.44     0  08:53        0.07
  2337                 JUNCTION     0.02     0.02    92.41     0  08:59        0.02
  2338                 JUNCTION     0.00     0.01    96.63     0  08:00        0.01
  2339                 JUNCTION     0.00     0.00    99.67     0  08:00        0.00
  2340                 JUNCTION     0.00     0.01    88.11     0  07:57        0.01
  2341                 JUNCTION     0.02     0.03    83.85     0  09:51        0.03
  2342                 JUNCTION     0.02     0.02    86.31     0  09:50        0.02
  2343                 JUNCTION     0.02     0.03    86.65     0  09:00        0.03
  2344                 JUNCTION     0.02     0.03    83.52     0  09:00        0.03
  2345                 JUNCTION     0.02     0.03    82.24     0  09:51        0.03
  2346                 JUNCTION     0.03     0.04    78.95     0  09:52        0.04
  2347                 JUNCTION     0.03     0.04    83.18     0  08:29        0.04
  2348                 JUNCTION     0.37     0.41    77.11     0  09:54        0.41
  2349                 JUNCTION     0.02     0.02    79.63     0  08:31        0.02
  2350                 JUNCTION     0.04     0.04    93.04     0  08:58        0.04
  2351                 JUNCTION     0.04     0.04   102.93     0  08:56        0.04
  2352                 JUNCTION     0.01     0.01   103.49     0  08:00        0.01
  24                   JUNCTION     0.01     0.01   115.40     0  08:00        0.01
  2409                 JUNCTION     0.00     0.00   120.00     0  11:59        0.00
  2410                 JUNCTION     0.01     0.01   113.42     0  09:00        0.01
  2411                 JUNCTION     0.01     0.01   113.68     0  09:00        0.01
  2412                 JUNCTION     0.01     0.01   113.95     0  09:00        0.01
  2413                 JUNCTION     0.01     0.01   114.38     0  09:00        0.01
  2414                 JUNCTION     0.00     0.01   117.51     0  09:00        0.01
  2415                 JUNCTION     0.00     0.01   118.10     0  08:00        0.01
  2418                 JUNCTION     0.01     0.01   114.82     0  08:58        0.01
  2421                 JUNCTION     0.01     0.01   104.31     0  08:00        0.01
  2422                 JUNCTION     0.01     0.01   108.17     0  08:02        0.01
  2423                 JUNCTION     0.01     0.01   101.01     0  08:00        0.01
  2424                 JUNCTION     0.01     0.01   107.84     0  08:00        0.01
  2425                 JUNCTION     0.04     0.05    98.54     0  08:07        0.05
  2426                 JUNCTION     0.06     0.07    98.01     0  08:09        0.07
  2427                 JUNCTION     0.05     0.06    97.88     0  08:10        0.06
  2428                 JUNCTION     0.05     0.06    97.69     0  08:11        0.06
  2429                 JUNCTION     0.01     0.01   114.97     0  09:00        0.01
  2430                 JUNCTION     0.04     0.05    96.98     0  08:16        0.05
  2431                 JUNCTION     0.04     0.05    96.70     0  08:04        0.05
  2432                 JUNCTION     0.03     0.04    96.25     0  08:04        0.04
  2433                 JUNCTION     0.02     0.02    97.95     0  08:00        0.02
  2434                 JUNCTION     0.05     0.07    97.31     0  08:15        0.07
  2435                 JUNCTION     0.05     0.07    97.47     0  08:11        0.07
  2436                 JUNCTION     0.04     0.05    83.40     0  08:16        0.05
  2437                 JUNCTION     0.05     0.07    83.34     0  08:17        0.07
  2438                 JUNCTION     0.04     0.06    72.56     0  08:19        0.06
  2439                 JUNCTION     0.01     0.01    83.23     0  08:17        0.01
  2440                 JUNCTION     0.10     0.16    58.85     0  10:26        0.16
  2441                 JUNCTION     0.02     0.03    65.18     0  08:21        0.03
  2442                 JUNCTION     0.01     0.02    71.82     0  08:20        0.02
  2443                 JUNCTION     0.09     0.14    59.04     0  10:24        0.14
  2444                 JUNCTION     0.03     0.05    72.35     0  08:20        0.05
  2445                 JUNCTION     0.08     0.14    59.60     0  10:32        0.14
  2446                 JUNCTION     0.02     0.02    97.69     0  08:00        0.02
  2447                 JUNCTION     0.02     0.02    97.99     0  08:00        0.02
  2448                 JUNCTION     0.02     0.02    98.09     0  08:00        0.02
  2449                 JUNCTION     0.00     0.01   102.69     0  11:03        0.01
  2450                 JUNCTION     0.04     0.05   114.16     0  08:00        0.05
  2451                 JUNCTION     0.00     0.00   117.18     0  08:00        0.00
  2452                 JUNCTION     0.01     0.01   117.15     0  08:00        0.01
  2453                 JUNCTION     0.03     0.04   114.33     0  08:00        0.04
  2454                 JUNCTION     0.04     0.05   114.59     0  08:00        0.05
  2455                 JUNCTION     0.04     0.05   114.75     0  08:00        0.05
  2456                 JUNCTION     0.00     0.01   115.12     0  08:00        0.01
  2457                 JUNCTION     0.03     0.03   115.20     0  08:00        0.03
  2458                 JUNCTION     0.01     0.02    98.57     0  08:00        0.02
  2459                 JUNCTION     0.00     0.00   149.92     0  08:00        0.00
  2460                 JUNCTION     0.00     0.00   145.28     0  08:00        0.00
  2461                 JUNCTION     0.01     0.01   133.65     0  08:00        0.01
  2462                 JUNCTION     0.01     0.01   130.13     0  08:00        0.01
  2463                 JUNCTION     0.01     0.01   125.55     0  08:00        0.01
  2464                 JUNCTION     0.01     0.01   118.46     0  08:00        0.01
  2465                 JUNCTION     0.01     0.01   117.91     0  08:00        0.01
  2466                 JUNCTION     0.01     0.02   117.37     0  08:00        0.02
  2467                 JUNCTION     0.01     0.01   131.57     0  08:00        0.01
  2468                 JUNCTION     0.00     0.00   136.20     0  08:00        0.00
  2469                 JUNCTION     0.00     0.00   152.97     0  08:00        0.00
  2470                 JUNCTION     0.00     0.01   127.71     0  08:00        0.01
  2471                 JUNCTION     0.00     0.00   165.17     0  07:54        0.00
  2472                 JUNCTION     0.00     0.00   123.63     0  08:00        0.00
  2473                 JUNCTION     0.00     0.00   134.30     0  07:56        0.00
  2474                 JUNCTION     0.00     0.00   161.43     0  08:00        0.00
  2475                 JUNCTION     0.01     0.02   161.77     0  12:00        0.02
  2476                 JUNCTION     0.01     0.01   161.50     0  12:00        0.01
  2477                 JUNCTION     0.01     0.01   161.91     0  12:00        0.01
  2478                 JUNCTION     0.00     0.00   154.86     0  07:58        0.00
  2479                 JUNCTION     0.00     0.00   158.49     0  08:00        0.00
  2480                 JUNCTION     0.00     0.01   160.67     0  11:53        0.01
  2481                 JUNCTION     0.01     0.02   162.52     0  12:00        0.02
  2482                 JUNCTION     0.01     0.01   120.56     0  08:00        0.01
  2483                 JUNCTION     0.05     0.06    97.55     0  08:11        0.06
  258                  JUNCTION     0.00     0.00   121.00     0  07:35        0.00
  2587                 JUNCTION     0.00     0.00   113.88     0  12:00        0.00
  2588                 JUNCTION     0.00     0.00   114.23     0  12:00        0.00
  2589                 JUNCTION     0.02     0.02   118.34     0  12:00        0.02
  259                  JUNCTION     0.01     0.01   119.75     0  10:00        0.01
  2590                 JUNCTION     0.01     0.02   117.75     0  12:00        0.02
  26                   JUNCTION     0.00     0.00    96.89     0  07:46        0.00
  260                  JUNCTION     0.00     0.00   122.30     0  08:00        0.00
  2603                 JUNCTION     0.00     0.00   109.38     0  11:14        0.00
  2604                 JUNCTION     0.02     0.02   113.68     0  12:00        0.02
  2605                 JUNCTION     0.02     0.03   113.85     0  12:00        0.03
  2606                 JUNCTION     0.02     0.03   114.28     0  12:00        0.03
  2607                 JUNCTION     0.01     0.01   114.47     0  08:01        0.01
  2608                 JUNCTION     0.02     0.02   112.97     0  12:00        0.02
  2609                 JUNCTION     0.00     0.00   107.40     0  08:00        0.00
  261                  JUNCTION     0.00     0.00   125.00     0  11:56        0.00
  2610                 JUNCTION     0.00     0.00   106.54     0  08:01        0.00
  2611                 JUNCTION     0.00     0.01   106.02     0  12:00        0.01
  2612                 JUNCTION     0.00     0.00   108.70     0  12:00        0.00
  2613                 JUNCTION     0.01     0.01   116.18     0  08:00        0.01
  2615                 JUNCTION     0.02     0.02   115.12     0  12:00        0.02
  266                  JUNCTION     0.00     0.00   118.30     0  08:00        0.00
  268                  JUNCTION     0.01     0.01   105.37     0  08:00        0.01
  269                  JUNCTION     0.00     0.00   115.33     0  08:00        0.00
  2691                 JUNCTION     0.09     0.10   109.97     0  12:00        0.10
  2692                 JUNCTION     0.00     0.00   112.38     0  08:01        0.00
  2693                 JUNCTION     0.01     0.01   114.51     0  12:00        0.01
  2694                 JUNCTION     0.01     0.01   116.68     0  08:00        0.01
  2696                 JUNCTION     0.01     0.01   110.73     0  08:00        0.01
  2697                 JUNCTION     0.02     0.03   106.08     0  12:00        0.03
  2698                 JUNCTION     0.02     0.02   112.24     0  11:18        0.02
  2699                 JUNCTION     0.02     0.02   112.52     0  11:11        0.02
  27                   JUNCTION     0.00     0.00    77.50     0  00:00        0.00
  270                  JUNCTION     0.01     0.01   117.46     0  08:00        0.01
  2700                 JUNCTION     0.00     0.00   112.90     0  08:00        0.00
  2702                 JUNCTION     0.02     0.03   111.19     0  12:00        0.03
  2703                 JUNCTION     0.00     0.01   116.59     0  08:00        0.01
  2704                 JUNCTION     0.02     0.02   110.54     0  12:00        0.02
  2705                 JUNCTION     0.02     0.02   110.66     0  12:00        0.02
  2706                 JUNCTION     0.03     0.04   105.05     0  12:00        0.04
  2707                 JUNCTION     0.03     0.04   105.45     0  12:00        0.04
  2708                 JUNCTION     0.03     0.03   105.66     0  12:00        0.03
  2709                 JUNCTION     0.08     0.09   105.93     0  12:00        0.09
  271                  JUNCTION     0.00     0.00   104.51     0  08:00        0.00
  2710                 JUNCTION     0.05     0.06   105.49     0  12:00        0.06
  2711                 JUNCTION     0.00     0.00   105.80     0  00:00        0.00
  2712                 JUNCTION     0.01     0.02   109.89     0  12:00        0.02
  2713                 JUNCTION     0.02     0.02   109.61     0  12:00        0.02
  2714                 JUNCTION     0.01     0.01   113.12     0  12:00        0.01
  2715                 JUNCTION     0.03     0.03   106.84     0  11:39        0.03
  2716                 JUNCTION     0.01     0.01   110.20     0  08:00        0.01
  2717                 JUNCTION     0.00     0.00   110.18     0  00:00        0.00
  2718                 JUNCTION     0.03     0.03   106.68     0  11:46        0.03
  2719                 JUNCTION     0.03     0.03   106.48     0  11:58        0.03
  272                  JUNCTION     0.00     0.00   130.49     0  07:52        0.00
  2720                 JUNCTION     0.00     0.01   112.99     0  08:00        0.01
  2721                 JUNCTION     0.01     0.01   116.14     0  08:00        0.01
  2722                 JUNCTION     0.01     0.01   110.90     0  11:38        0.01
  2723                 JUNCTION     0.02     0.02   111.32     0  11:31        0.02
  2724                 JUNCTION     0.02     0.02   111.41     0  11:28        0.02
  2725                 JUNCTION     0.02     0.02   111.85     0  11:22        0.02
  2726                 JUNCTION     0.01     0.01   113.61     0  12:00        0.01
  2727                 JUNCTION     0.00     0.00   121.30     0  00:00        0.00
  2728                 JUNCTION     0.01     0.01   114.12     0  11:06        0.01
  2729                 JUNCTION     0.01     0.01   107.31     0  08:00        0.01
  273                  JUNCTION     0.00     0.00   135.20     0  07:56        0.00
  2730                 JUNCTION     0.04     0.04   104.77     0  12:00        0.04
  2731                 JUNCTION     0.01     0.01   107.50     0  11:00        0.01
  2732                 JUNCTION     0.01     0.01   108.74     0  12:00        0.01
  2733                 JUNCTION     0.01     0.01   108.15     0  12:00        0.01
  2734                 JUNCTION     0.04     0.05   112.48     0  12:00        0.05
  2735                 JUNCTION     0.01     0.01   109.56     0  12:00        0.01
  2736                 JUNCTION     0.01     0.01   112.62     0  12:00        0.01
  2737                 JUNCTION     0.01     0.01   112.80     0  12:00        0.01
  2738                 JUNCTION     0.01     0.01   113.44     0  10:04        0.01
  2739                 JUNCTION     0.01     0.01   108.09     0  08:00        0.01
  274                  JUNCTION     0.00     0.00   118.70     0  08:00        0.00
  2740                 JUNCTION     0.01     0.01   108.34     0  08:00        0.01
  2741                 JUNCTION     0.00     0.00   118.42     0  08:00        0.00
  2742                 JUNCTION     0.00     0.00   117.95     0  08:03        0.00
  2743                 JUNCTION     0.01     0.02   112.27     0  09:47        0.02
  2744                 JUNCTION     0.02     0.02   110.77     0  10:00        0.02
  2745                 JUNCTION     0.01     0.01   109.85     0  08:00        0.01
  2746                 JUNCTION     0.33     0.73   115.26     0  12:00        0.73
  275                  JUNCTION     0.00     0.00   139.41     0  07:51        0.00
  2750                 JUNCTION     0.01     0.01   115.51     0  12:00        0.01
  2751                 JUNCTION     0.00     0.00   119.85     0  11:00        0.00
  2752                 JUNCTION     0.00     0.00   110.10     0  11:00        0.00
  2753                 JUNCTION     0.01     0.01   112.31     0  12:00        0.01
  2754                 JUNCTION     0.01     0.01   112.91     0  12:00        0.01
  2755                 JUNCTION     0.01     0.01   114.97     0  12:00        0.01
  2756                 JUNCTION     0.01     0.01   113.49     0  12:00        0.01
  2757                 JUNCTION     0.01     0.01   110.99     0  08:00        0.01
  2758                 JUNCTION     0.01     0.01   111.57     0  08:00        0.01
  2759                 JUNCTION     0.01     0.02   112.00     0  08:00        0.02
  276                  JUNCTION     0.00     0.00   150.18     0  08:00        0.00
  2760                 JUNCTION     0.00     0.01   113.95     0  08:00        0.01
  2761                 JUNCTION     0.00     0.01   114.62     0  12:00        0.01
  2762                 JUNCTION     0.01     0.01   112.60     0  08:00        0.01
  2763                 JUNCTION     0.01     0.01   112.90     0  08:00        0.01
  2765                 JUNCTION     0.01     0.02   108.72     0  08:00        0.02
  2766                 JUNCTION     0.02     0.02   109.23     0  08:07        0.02
  2767                 JUNCTION     0.01     0.01   110.22     0  08:00        0.01
  2768                 JUNCTION     0.01     0.01   110.51     0  08:00        0.01
  2769                 JUNCTION     0.00     0.00   116.10     0  07:59        0.00
  277                  JUNCTION     0.00     0.00   123.67     0  08:00        0.00
  2770                 JUNCTION     0.00     0.00   112.17     0  08:00        0.00
  2771                 JUNCTION     0.01     0.01   109.38     0  09:41        0.01
  2772                 JUNCTION     0.01     0.01   109.47     0  09:19        0.01
  2773                 JUNCTION     0.00     0.01   104.57     0  11:11        0.01
  2774                 JUNCTION     0.00     0.00   106.00     0  11:00        0.00
  2775                 JUNCTION     0.00     0.00   106.31     0  00:00        0.00
  2776                 JUNCTION     0.00     0.00   107.97     0  11:00        0.00
  2777                 JUNCTION     0.01     0.01   104.53     0  12:00        0.01
  2778                 JUNCTION     0.01     0.01   105.01     0  12:00        0.01
  2779                 JUNCTION     0.00     0.01   105.39     0  12:00        0.01
  278                  JUNCTION     0.00     0.00   162.45     0  08:00        0.00
  2780                 JUNCTION     0.00     0.01   105.10     0  12:00        0.01
  2781                 JUNCTION     0.01     0.01   108.31     0  12:00        0.01
  2782                 JUNCTION     0.01     0.01   108.75     0  12:00        0.01
  2783                 JUNCTION     0.00     0.00   109.12     0  11:46        0.00
  2784                 JUNCTION     0.05     0.06   103.50     0  08:03        0.06
  2785                 JUNCTION     0.03     0.03   103.82     0  08:01        0.03
  2786                 JUNCTION     0.01     0.02   104.07     0  12:00        0.02
  2787                 JUNCTION     0.01     0.01   108.03     0  08:00        0.01
  2788                 JUNCTION     0.02     0.03   105.91     0  08:00        0.03
  2789                 JUNCTION     0.02     0.02   108.61     0  08:00        0.02
  2790                 JUNCTION     0.00     0.00   113.29     0  08:00        0.00
  2791                 JUNCTION     0.01     0.01   106.33     0  08:00        0.01
  2792                 JUNCTION     0.02     0.03   105.78     0  08:00        0.03
  2793                 JUNCTION     0.01     0.01   110.11     0  08:00        0.01
  2794                 JUNCTION     0.01     0.02   109.75     0  08:00        0.02
  2795                 JUNCTION     0.01     0.02   109.07     0  08:00        0.02
  2796                 JUNCTION     0.01     0.01   110.47     0  08:00        0.01
  2797                 JUNCTION     0.01     0.02   109.70     0  08:00        0.02
  2798                 JUNCTION     0.02     0.02   109.39     0  08:00        0.02
  2799                 JUNCTION     0.01     0.02   108.95     0  08:00        0.02
  2800                 JUNCTION     0.01     0.01   113.36     0  08:00        0.01
  2801                 JUNCTION     0.01     0.01   112.76     0  08:00        0.01
  2802                 JUNCTION     0.01     0.01   113.25     0  08:00        0.01
  2803                 JUNCTION     0.01     0.01   113.67     0  08:00        0.01
  2804                 JUNCTION     0.01     0.01   116.26     0  08:00        0.01
  2805                 JUNCTION     0.01     0.01   115.81     0  08:00        0.01
  2806                 JUNCTION     0.02     0.02   106.27     0  08:06        0.02
  2807                 JUNCTION     0.02     0.02   105.99     0  08:00        0.02
  2808                 JUNCTION     0.01     0.01   106.62     0  08:00        0.01
  2809                 JUNCTION     0.01     0.01   107.58     0  08:00        0.01
  2810                 JUNCTION     0.01     0.01   110.88     0  08:00        0.01
  2811                 JUNCTION     0.04     0.05   100.76     0  08:00        0.05
  2812                 JUNCTION     0.05     0.06   100.39     0  08:01        0.06
  2813                 JUNCTION     0.04     0.06   100.49     0  08:00        0.06
  2814                 JUNCTION     0.02     0.03   100.71     0  08:00        0.03
  2815                 JUNCTION     0.05     0.07    99.91     0  08:03        0.07
  2816                 JUNCTION     0.04     0.05    99.50     0  08:03        0.05
  2817                 JUNCTION     0.06     0.07   100.11     0  08:02        0.07
  2818                 JUNCTION     0.01     0.01   110.66     0  08:00        0.01
  2819                 JUNCTION     0.02     0.03   108.83     0  08:00        0.03
  2820                 JUNCTION     0.02     0.02   107.02     0  08:00        0.02
  2821                 JUNCTION     0.02     0.03   101.15     0  08:00        0.03
  2822                 JUNCTION     0.01     0.01   108.27     0  08:00        0.01
  2823                 JUNCTION     0.02     0.02   107.38     0  07:59        0.02
  2824                 JUNCTION     0.02     0.02   106.80     0  08:00        0.02
  2825                 JUNCTION     0.02     0.02   107.07     0  08:02        0.02
  2826                 JUNCTION     0.00     0.00   108.88     0  00:00        0.00
  2827                 JUNCTION     0.03     0.04   111.77     0  08:00        0.04
  2828                 JUNCTION     0.02     0.03   111.23     0  08:00        0.03
  2829                 JUNCTION     0.03     0.04   109.24     0  08:00        0.04
  2830                 JUNCTION     0.03     0.03   109.92     0  08:00        0.03
  2831                 JUNCTION     0.02     0.02   110.64     0  08:00        0.02
  2832                 JUNCTION     0.01     0.02   104.48     0  08:00        0.02
  2833                 JUNCTION     0.01     0.01   107.19     0  08:00        0.01
  2834                 JUNCTION     0.01     0.01   115.15     0  08:00        0.01
  2835                 JUNCTION     0.00     0.00   111.69     0  07:25        0.00
  2836                 JUNCTION     0.02     0.02   101.94     0  08:00        0.02
  2837                 JUNCTION     0.01     0.02   102.56     0  08:00        0.02
  2838                 JUNCTION     0.03     0.04   102.83     0  08:01        0.04
  2839                 JUNCTION     0.03     0.04   102.96     0  08:00        0.04
  2840                 JUNCTION     0.03     0.04   103.14     0  08:00        0.04
  2841                 JUNCTION     0.04     0.05   102.19     0  08:07        0.05
  2842                 JUNCTION     0.03     0.04   102.53     0  08:05        0.04
  2843                 JUNCTION     0.03     0.03   102.72     0  08:01        0.03
  2844                 JUNCTION     0.00     0.00   106.07     0  08:00        0.00
  2845                 JUNCTION     0.01     0.01   106.54     0  08:00        0.01
  2846                 JUNCTION     0.00     0.01   112.63     0  08:00        0.01
  2847                 JUNCTION     0.01     0.01   113.09     0  07:58        0.01
  2848                 JUNCTION     0.02     0.02   115.01     0  08:00        0.02
  2849                 JUNCTION     0.00     0.01   111.14     0  08:00        0.01
  2850                 JUNCTION     0.01     0.01   117.64     0  08:00        0.01
  2851                 JUNCTION     0.01     0.01   117.37     0  08:00        0.01
  2852                 JUNCTION     0.01     0.01   117.82     0  08:00        0.01
  2853                 JUNCTION     0.01     0.01   117.07     0  08:00        0.01
  2854                 JUNCTION     0.00     0.01   116.10     0  08:00        0.01
  2855                 JUNCTION     0.02     0.02   116.11     0  08:00        0.02
  2856                 JUNCTION     0.02     0.02   115.90     0  08:00        0.02
  2857                 JUNCTION     0.02     0.03   115.50     0  08:00        0.03
  2858                 JUNCTION     0.00     0.01   117.97     0  08:00        0.01
  2859                 JUNCTION     0.01     0.01   110.13     0  08:00        0.01
  2860                 JUNCTION     0.01     0.01   109.43     0  08:00        0.01
  2861                 JUNCTION     0.03     0.04   101.21     0  10:16        0.04
  2862                 JUNCTION     0.01     0.01   108.21     0  07:55        0.01
  2863                 JUNCTION     0.00     0.00   114.79     0  08:00        0.00
  2864                 JUNCTION     0.00     0.01   112.78     0  08:00        0.01
  2865                 JUNCTION     0.03     0.04   101.76     0  08:00        0.04
  2866                 JUNCTION     0.03     0.04   102.07     0  08:03        0.04
  2867                 JUNCTION     0.04     0.05   101.48     0  10:15        0.05
  2868                 JUNCTION     0.04     0.05   104.27     0  12:00        0.05
  2869                 JUNCTION     0.01     0.01   106.21     0  08:00        0.01
  2870                 JUNCTION     0.06     0.07   100.93     0  08:19        0.07
  2871                 JUNCTION     0.01     0.01   117.22     0  08:00        0.01
  2872                 JUNCTION     0.01     0.01   104.34     0  08:00        0.01
  2873                 JUNCTION     0.00     0.00   105.92     0  08:01        0.00
  2874                 JUNCTION     0.00     0.00   109.73     0  08:00        0.00
  2875                 JUNCTION     0.01     0.01   107.36     0  08:00        0.01
  2876                 JUNCTION     0.00     0.01   111.85     0  08:00        0.01
  2877                 JUNCTION     0.00     0.01   112.84     0  08:01        0.01
  2878                 JUNCTION     0.03     0.04   100.78     0  08:22        0.04
  2879                 JUNCTION     0.01     0.02   104.24     0  08:00        0.02
  2880                 JUNCTION     0.01     0.02   104.66     0  08:00        0.02
  2881                 JUNCTION     0.01     0.01   105.19     0  08:00        0.01
  2882                 JUNCTION     0.00     0.01   119.71     0  08:00        0.01
  2883                 JUNCTION     0.01     0.01   117.95     0  08:00        0.01
  2884                 JUNCTION     0.01     0.01   117.54     0  08:00        0.01
  2885                 JUNCTION     0.01     0.02   117.05     0  08:00        0.02
  2886                 JUNCTION     0.02     0.02   116.51     0  08:00        0.02
  2887                 JUNCTION     0.01     0.01   117.77     0  08:00        0.01
  2888                 JUNCTION     0.01     0.02   117.62     0  08:00        0.02
  2889                 JUNCTION     0.00     0.01   113.61     0  08:00        0.01
  2890                 JUNCTION     0.01     0.01   118.03     0  07:34        0.01
  2891                 JUNCTION     0.01     0.01   115.63     0  08:00        0.01
  2892                 JUNCTION     0.01     0.01   117.19     0  08:00        0.01
  2893                 JUNCTION     0.01     0.01   117.63     0  07:56        0.01
  2894                 JUNCTION     0.01     0.01   120.03     0  08:00        0.01
  2895                 JUNCTION     0.01     0.01   103.34     0  08:00        0.01
  2896                 JUNCTION     0.02     0.03   112.97     0  08:00        0.03
  2898                 JUNCTION     0.02     0.03   112.32     0  08:00        0.03
  2899                 JUNCTION     0.01     0.01   109.32     0  08:00        0.01
  2900                 JUNCTION     0.02     0.02   114.40     0  08:00        0.02
  2901                 JUNCTION     0.01     0.01   115.61     0  08:00        0.01
  2902                 JUNCTION     0.01     0.01   114.19     0  07:47        0.01
  2903                 JUNCTION     0.01     0.01   115.20     0  07:42        0.01
  2904                 JUNCTION     0.01     0.01   115.87     0  07:13        0.01
  2905                 JUNCTION     0.01     0.01   114.94     0  08:00        0.01
  2906                 JUNCTION     0.07     0.12    63.95     0  10:00        0.12
  2907                 JUNCTION     0.08     0.13    64.02     0  09:58        0.13
  2908                 JUNCTION     0.08     0.13    65.42     0  09:47        0.13
  2909                 JUNCTION     0.08     0.12    64.39     0  09:56        0.12
  2910                 JUNCTION     0.08     0.12    64.69     0  09:53        0.12
  2911                 JUNCTION     0.08     0.13    65.11     0  09:49        0.13
  2912                 JUNCTION     0.00     0.00   114.43     0  12:00        0.00
  2913                 JUNCTION     0.00     0.00   123.72     0  11:56        0.00
  2914                 JUNCTION     0.00     0.00   116.47     0  11:56        0.00
  2915                 JUNCTION     0.01     0.01   115.83     0  10:00        0.01
  2916                 JUNCTION     0.01     0.01   114.88     0  10:01        0.01
  2917                 JUNCTION     0.01     0.01   127.34     0  10:00        0.01
  2918                 JUNCTION     0.01     0.01   123.13     0  10:00        0.01
  2919                 JUNCTION     0.01     0.01   124.74     0  10:00        0.01
  2920                 JUNCTION     0.01     0.02   111.51     0  10:03        0.02
  2921                 JUNCTION     0.01     0.02   111.91     0  10:02        0.02
  2922                 JUNCTION     0.01     0.01   112.68     0  10:01        0.01
  2923                 JUNCTION     0.01     0.02   113.47     0  10:01        0.02
  2924                 JUNCTION     0.01     0.01   107.58     0  11:59        0.01
  2925                 JUNCTION     0.01     0.01   107.91     0  11:06        0.01
  2926                 JUNCTION     0.02     0.02   107.59     0  11:16        0.02
  2927                 JUNCTION     0.01     0.01   107.76     0  11:13        0.01
  2928                 JUNCTION     0.01     0.01   107.70     0  11:15        0.01
  2929                 JUNCTION     0.01     0.01   113.72     0  12:00        0.01
  2930                 JUNCTION     0.01     0.01   107.19     0  11:59        0.01
  2931                 JUNCTION     0.00     0.00   107.89     0  00:00        0.00
  2932                 JUNCTION     0.00     0.00   107.78     0  00:00        0.00
  2933                 JUNCTION     0.01     0.04   113.63     0  09:21        0.03
  2934                 JUNCTION     0.01     0.05   113.94     0  09:20        0.05
  2935                 JUNCTION     0.00     0.10   114.29     0  09:19        0.08
  2936                 JUNCTION     0.00     0.11   114.50     0  10:58        0.02
  2938                 JUNCTION     0.01     0.02   110.40     0  10:05        0.02
  2939                 JUNCTION     0.01     0.02   110.94     0  10:04        0.02
  2940                 JUNCTION     0.02     0.04   111.32     0  09:27        0.04
  2941                 JUNCTION     0.01     0.04   111.93     0  09:25        0.04
  2942                 JUNCTION     0.00     0.00   112.90     0  00:00        0.00
  2943                 JUNCTION     0.01     0.03   112.64     0  09:23        0.03
  2944                 JUNCTION     0.01     0.01   113.33     0  08:00        0.01
  2945                 JUNCTION     0.01     0.01   113.69     0  08:00        0.01
  2946                 JUNCTION     0.00     0.01   114.74     0  08:00        0.01
  2947                 JUNCTION     0.00     0.00   115.23     0  08:00        0.00
  2948                 JUNCTION     0.00     0.00   113.08     0  12:00        0.00
  2949                 JUNCTION     0.13     0.22   117.72     0  11:59        0.22
  2950                 JUNCTION     0.01     0.01   112.91     0  08:04        0.01
  2951                 JUNCTION     0.01     0.01   113.13     0  08:02        0.01
  2952                 JUNCTION     0.00     0.00   116.25     0  08:01        0.00
  2953                 JUNCTION     0.01     0.01   113.29     0  12:00        0.01
  2954                 JUNCTION     0.01     0.01   112.31     0  08:09        0.01
  2955                 JUNCTION     0.01     0.01   112.33     0  08:07        0.01
  2956                 JUNCTION     0.01     0.01   112.39     0  08:06        0.01
  2957                 JUNCTION     0.00     0.00   113.22     0  00:00        0.00
  2958                 JUNCTION     0.00     0.00   113.49     0  12:00        0.00
  2959                 JUNCTION     0.00     0.00   116.53     0  08:00        0.00
  2960                 JUNCTION     0.01     0.01   111.78     0  08:13        0.01
  2961                 JUNCTION     0.01     0.01   111.65     0  08:14        0.01
  2962                 JUNCTION     0.01     0.01   116.57     0  08:00        0.01
  2964                 JUNCTION     0.00     0.00   114.37     0  12:00        0.00
  2965                 JUNCTION     0.02     0.03   121.93     0  11:00        0.03
  2966                 JUNCTION     0.01     0.01   114.69     0  11:15        0.01
  2967                 JUNCTION     0.00     0.00   114.73     0  12:00        0.00
  2968                 JUNCTION     0.00     0.00   121.24     0  11:34        0.00
  2969                 JUNCTION     0.00     0.01   116.85     0  08:00        0.01
  2970                 JUNCTION     0.00     0.00   117.08     0  07:59        0.00
  2971                 JUNCTION     0.00     0.00   123.95     0  07:58        0.00
  2972                 JUNCTION     0.00     0.01   127.02     0  08:00        0.01
  2973                 JUNCTION     0.01     0.01   114.30     0  11:39        0.01
  2974                 JUNCTION     0.00     0.00   122.99     0  08:00        0.00
  2975                 JUNCTION     0.00     0.00   126.61     0  08:00        0.00
  2976                 JUNCTION     0.01     0.01   106.01     0  10:00        0.01
  2977                 JUNCTION     0.01     0.02   109.26     0  10:00        0.02
  2978                 JUNCTION     0.00     0.00   101.97     0  07:55        0.00
  2979                 JUNCTION     0.00     0.00    94.72     0  07:54        0.00
  2980                 JUNCTION     0.01     0.02   113.44     0  09:47        0.02
  2981                 JUNCTION     0.00     0.00   106.03     0  08:00        0.00
  2983                 JUNCTION     0.11     0.12    85.72     0  08:16        0.12
  2985                 JUNCTION     0.04     0.05    84.81     0  08:17        0.05
  2986                 JUNCTION     0.01     0.01   100.71     0  08:00        0.01
  2987                 JUNCTION     0.00     0.01    97.42     0  08:00        0.01
  2988                 JUNCTION     0.00     0.00   103.94     0  08:00        0.00
  2989                 JUNCTION     0.00     0.00   107.79     0  08:00        0.00
  2990                 JUNCTION     0.00     0.01   112.68     0  08:00        0.01
  2991                 JUNCTION     0.01     0.01   113.93     0  08:00        0.01
  2992                 JUNCTION     0.00     0.00   125.06     0  08:00        0.00
  2993                 JUNCTION     0.00     0.00   125.84     0  07:36        0.00
  2994                 JUNCTION     0.01     0.01   101.22     0  11:11        0.01
  2995                 JUNCTION     0.01     0.01   104.52     0  08:06        0.01
  2996                 JUNCTION     0.00     0.00   101.70     0  12:00        0.00
  2997                 JUNCTION     0.01     0.01   104.63     0  08:02        0.01
[...]
  513549                 12.26   0.01  0.00  0.00  0.00  0.95  0.00  0.04  0.94  0.00
  513597                  1.00   0.01  0.00  0.00  0.02  0.98  0.00  0.00  0.00  0.00
  513598                  2.50   0.02  0.00  0.00  0.00  0.00  0.00  0.98  0.00  0.00
  513599                  1.00   0.00  0.00  0.00  0.00  0.00  0.00  1.00  0.00  0.00
  513793                  1.00   0.00  0.00  0.00  0.00  0.00  0.00  1.00  0.00  0.00
  513794                  1.00   0.00  0.00  0.00  0.00  0.00  0.00  1.00  0.00  0.00
  513795                  1.00   0.01  0.00  0.00  0.00  0.00  0.00  0.99  0.00  0.00
  513796                  1.00   0.00  0.00  0.00  0.00  0.00  0.00  1.00  0.00  0.00
  513801                  1.00   0.01  0.00  0.00  0.00  0.00  0.00  0.99  0.00  0.00
  513872                  1.00   0.00  0.00  0.00  0.00  0.00  0.00  1.00  0.00  0.00
  513873                  1.00   0.02  0.00  0.00  0.00  0.00  0.00  0.98  0.00  0.00
  513874                  1.00   0.03  0.00  0.00  0.00  0.00  0.00  0.97  0.00  0.00
  513875                  1.00   1.00  0.00  0.00  0.00  0.00  0.00  0.00  0.00  0.00
  513883                  1.00   0.00  0.00  0.00  0.00  1.00  0.00  0.00  1.00  0.00
  513884                  4.77   0.00  0.00  0.00  0.00  0.00  0.00  1.00  0.00  0.00
  513885                  1.00   0.00  0.00  0.00  0.00  0.99  0.00  0.00  1.00  0.00
  513886                  1.00   0.00  0.00  0.00  0.99  0.01  0.00  0.00  1.00  0.00
  513909                  1.00   0.00  0.00  0.00  1.00  0.00  0.00  0.00  1.00  0.00
  513910                  1.00   0.00  0.00  0.00  1.00  0.00  0.00  0.00  0.98  0.00
  514113                  1.00   1.00  0.00  0.00  0.00  0.00  0.00  0.00  0.00  0.00
  514114                  1.48   0.00  0.00  0.00  1.00  0.00  0.00  0.00  0.72  0.00
  514118                  1.00   0.01  0.00  0.00  0.00  0.00  0.00  0.99  0.00  0.00
  514131                  1.00   1.00  0.00  0.00  0.00  0.00  0.00  0.00  0.00  0.00
  514132                  1.00   1.00  0.00  0.00  0.00  0.00  0.00  0.00  0.00  0.00
  514133                  5.52   1.00  0.00  0.00  0.00  0.00  0.00  0.00  0.00  0.00
  514138                  1.00   0.00  0.00  0.00  0.00  0.00  0.00  1.00  0.00  0.00
  514170                  1.00   1.00  0.00  0.00  0.00  0.00  0.00  0.00  0.00  0.00
  514171                  1.00   1.00  0.00  0.00  0.00  0.00  0.00  0.00  0.00  0.00
  514173                  1.00   1.00  0.00  0.00  0.00  0.00  0.00  0.00  0.00  0.00
  514174                  1.00   1.00  0.00  0.00  0.00  0.00  0.00  0.00  0.00  0.00
  514175                  3.21   0.01  0.00  0.00  0.00  0.00  0.00  0.99  0.00  0.00
  514178                  1.80   0.00  0.00  0.00  0.63  0.37  0.00  0.00  0.99  0.00
  514182                  1.00   0.00  0.00  0.00  0.00  0.00  0.00  1.00  0.00  0.00
  514184                  1.00   1.00  0.00  0.00  0.00  0.00  0.00  0.00  0.00  0.00
  514185                  1.00   1.00  0.00  0.00  0.00  0.00  0.00  0.00  0.00  0.00
  514186                  1.00   0.00  0.00  0.00  0.00  0.00  0.00  1.00  0.00  0.00
  514188                  4.39   0.00  0.00  0.00  0.00  0.00  0.00  1.00  0.00  0.00
  514189                  1.00   0.01  0.00  0.00  0.00  0.00  0.00  0.99  0.00  0.00
  514190                 15.96   0.00  1.00  0.00  0.00  0.00  0.00  0.00  0.00  0.00
  514209                  1.00   0.03  0.00  0.00  0.00  0.00  0.00  0.97  0.00  0.00
  514210                  1.00   0.02  0.00  0.00  0.00  0.00  0.00  0.98  0.00  0.00
  514212                  1.00   0.03  0.00  0.00  0.00  0.00  0.00  0.97  0.00  0.00
  514213                  1.00   0.03  0.00  0.00  0.00  0.00  0.00  0.97  0.00  0.00
  514260                  1.00   0.45  0.00  0.00  0.55  0.01  0.00  0.00  0.40  0.00
  514261                  1.00   0.41  0.00  0.00  0.00  0.00  0.00  0.59  0.00  0.00
  514262                  1.00   1.00  0.00  0.00  0.00  0.00  0.00  0.00  0.00  0.00
  514264                  4.27   1.00  0.00  0.00  0.00  0.00  0.00  0.00  0.00  0.00
  514265                  4.35   1.00  0.00  0.00  0.00  0.00  0.00  0.00  0.00  0.00
  514266                 18.99   1.00  0.00  0.00  0.00  0.00  0.00  0.00  0.00  0.00
  514267                  3.17   0.01  0.99  0.00  0.00  0.00  0.00  0.00  0.00  0.00
  514291                 16.14   1.00  0.00  0.00  0.00  0.00  0.00  0.00  0.00  0.00
  514292                 21.75   1.00  0.00  0.00  0.00  0.00  0.00  0.00  0.00  0.00
  514454                  1.05   0.00  0.00  0.00  0.00  1.00  0.00  0.00  1.00  0.00
  514455                  1.00   0.00  0.00  0.00  0.00  1.00  0.00  0.00  1.00  0.00
  514586                 36.82   1.00  0.00  0.00  0.00  0.00  0.00  0.00  0.00  0.00
  514587                  1.00   1.00  0.00  0.00  0.00  0.00  0.00  0.00  0.00  0.00
  514588                  1.00   0.41  0.00  0.00  0.00  0.00  0.00  0.59  0.00  0.00
  514589                  1.00   0.44  0.00  0.00  0.55  0.01  0.00  0.00  0.43  0.00
  514590                  1.00   0.47  0.00  0.00  0.00  0.00  0.00  0.53  0.00  0.00
  514591                  2.15   0.49  0.00  0.00  0.00  0.00  0.00  0.51  0.00  0.00
  514592                  1.19   0.52  0.00  0.00  0.00  0.00  0.00  0.48  0.00  0.00
  514593                  1.70   1.00  0.00  0.00  0.00  0.00  0.00  0.00  0.00  0.00
  514594                  1.00   0.33  0.00  0.00  0.00  0.00  0.00  0.67  0.00  0.00
  514598                  1.00   1.00  0.00  0.00  0.00  0.00  0.00  0.00  0.00  0.00
  514600                  1.00   0.00  0.00  0.00  1.00  0.00  0.00  0.00  0.96  0.00
  514601                  1.00   0.69  0.00  0.00  0.00  0.00  0.00  0.31  0.00  0.00
  514603                  1.00   0.69  0.00  0.00  0.00  0.00  0.00  0.31  0.00  0.00
  514604                 13.79   0.00  0.68  0.00  0.00  0.00  0.32  0.00  0.00  0.00
  514605                  9.89   0.00  0.68  0.00  0.32  0.00  0.00  0.00  0.24  0.00
  514607                  5.67   0.70  0.00  0.00  0.00  0.00  0.00  0.30  0.00  0.00
  514611                  1.00   0.00  0.00  0.00  0.00  0.00  0.00  1.00  0.00  0.00
  514658                  1.00   0.00  0.00  0.00  0.00  0.00  0.00  1.00  0.00  0.00
  514695                  1.00   0.00  0.00  0.00  0.00  1.00  0.00  0.00  0.00  0.00
  514710                  1.00   0.00  0.00  0.00  0.00  0.00  0.00  1.00  0.00  0.00
  514712                  1.00   0.00  0.00  0.00  0.00  0.00  0.00  1.00  0.00  0.00
  514714                  1.00   0.00  0.00  0.00  0.00  0.00  0.00  1.00  0.00  0.00
  514715                  2.84   0.00  0.58  0.00  0.00  0.00  0.42  0.00  0.00  0.00
  514716                  5.14   0.01  0.00  0.00  0.00  0.00  0.99  0.00  0.00  0.00
  514717                 10.60   1.00  0.00  0.00  0.00  0.00  0.00  0.00  0.00  0.00
  514718                  4.17   1.00  0.00  0.00  0.00  0.00  0.00  0.00  0.00  0.00
  514719                 16.63   1.00  0.00  0.00  0.00  0.00  0.00  0.00  0.00  0.00
  514720                 15.84   1.00  0.00  0.00  0.00  0.00  0.00  0.00  0.00  0.00
  514721                  1.00   0.00  0.00  0.00  0.00  0.00  0.00  1.00  0.00  0.00
  514733                  1.00   0.00  0.00  0.00  1.00  0.00  0.00  0.00  0.99  0.00
  514734                  1.00   0.03  0.00  0.00  0.00  0.00  0.00  0.97  0.00  0.00
  514735                  1.00   0.00  0.00  0.00  0.00  1.00  0.00  0.00  0.99  0.00
  514736                  1.00   0.00  0.00  0.00  0.00  0.00  0.00  1.00  0.00  0.00
  514742                  1.00   0.00  0.00  0.00  0.00  0.00  0.00  1.00  0.00  0.00
  514745                  1.00   1.00  0.00  0.00  0.00  0.00  0.00  0.00  0.00  0.00
  514746                  4.69   0.00  1.00  0.00  0.00  0.00  0.00  0.00  0.00  0.00
  514747                  1.00   1.00  0.00  0.00  0.00  0.00  0.00  0.00  0.00  0.00
  514748                  1.00   0.00  1.00  0.00  0.00  0.00  0.00  0.00  0.00  0.00
  514776                  1.00   1.00  0.00  0.00  0.00  0.00  0.00  0.00  0.00  0.00
  514780                  1.00   1.00  0.00  0.00  0.00  0.00  0.00  0.00  0.00  0.00
  514781                  1.00   1.00  0.00  0.00  0.00  0.00  0.00  0.00  0.00  0.00
  514782                  1.09   1.00  0.00  0.00  0.00  0.00  0.00  0.00  0.00  0.00
  514783                  1.00   1.00  0.00  0.00  0.00  0.00  0.00  0.00  0.00  0.00
  514798                  1.01   0.00  0.00  0.00  0.00  0.00  0.00  1.00  0.00  0.00
  514799                  1.00   0.00  0.00  0.00  0.00  0.00  0.00  1.00  0.00  0.00
  514810                  2.45   1.00  0.00  0.00  0.00  0.00  0.00  0.00  0.00  0.00
  514811                  1.00   1.00  0.00  0.00  0.00  0.00  0.00  0.00  0.00  0.00
  514812                  1.00   1.00  0.00  0.00  0.00  0.00  0.00  0.00  0.00  0.00
  514813                  1.00   1.00  0.00  0.00  0.00  0.00  0.00  0.00  0.00  0.00
  514815                  1.19   1.00  0.00  0.00  0.00  0.00  0.00  0.00  0.00  0.00
  514816                  1.00   1.00  0.00  0.00  0.00  0.00  0.00  0.00  0.00  0.00
  514817                  1.69   1.00  0.00  0.00  0.00  0.00  0.00  0.00  0.00  0.00
  514818                  1.63   1.00  0.00  0.00  0.00  0.00  0.00  0.00  0.00  0.00
  514820                  1.00   1.00  0.00  0.00  0.00  0.00  0.00  0.00  0.00  0.00
  514821                  1.00   1.00  0.00  0.00  0.00  0.00  0.00  0.00  0.00  0.00
  514822                  1.00   1.00  0.00  0.00  0.00  0.00  0.00  0.00  0.00  0.00
  514823                  1.00   1.00  0.00  0.00  0.00  0.00  0.00  0.00  0.00  0.00
  514857                  7.48   1.00  0.00  0.00  0.00  0.00  0.00  0.00  0.00  0.00
  514860                  1.00   0.00  0.00  0.00  1.00  0.00  0.00  0.00  0.94  0.00
  514863                  1.00   0.01  0.00  0.00  0.00  0.00  0.00  0.99  0.00  0.00
  514866                  1.00   1.00  0.00  0.00  0.00  0.00  0.00  0.00  0.00  0.00
  514870                  1.00   1.00  0.00  0.00  0.00  0.00  0.00  0.00  0.00  0.00
  514871                  1.00   1.00  0.00  0.00  0.00  0.00  0.00  0.00  0.00  0.00
  514876                  1.00   0.00  0.00  0.00  0.00  1.00  0.00  0.00  0.00  0.00
  514877                  3.07   0.00  0.00  0.00  0.00  0.00  0.00  1.00  0.00  0.00
  514879                  1.00   0.00  0.00  0.00  0.00  0.00  0.00  1.00  0.00  0.00
  514880                  1.00   0.00  0.00  0.00  0.00  0.00  0.00  1.00  0.00  0.00
  514884                  1.00   1.00  0.00  0.00  0.00  0.00  0.00  0.00  0.00  0.00
  514887                 10.02   0.00  0.00  0.00  1.00  0.00  0.00  0.00  1.00  0.00
  514888                  1.00   0.00  0.00  0.00  0.00  0.00  0.00  1.00  0.00  0.00
  514890                  1.00   1.00  0.00  0.00  0.00  0.00  0.00  0.00  0.00  0.00
  514891                  3.52   0.03  0.97  0.00  0.00  0.00  0.00  0.00  0.00  0.00
  514892                  1.59   1.00  0.00  0.00  0.00  0.00  0.00  0.00  0.00  0.00
  514893                  1.00   0.00  0.00  0.00  0.00  1.00  0.00  0.00  0.00  0.00
  514894                  1.16   0.00  0.00  0.00  0.00  0.00  0.00  1.00  0.00  0.00
  514896                  1.50   1.00  0.00  0.00  0.00  0.00  0.00  0.00  0.00  0.00
  514908                  3.08   0.00  0.00  0.00  0.00  0.00  0.00  1.00  0.00  0.00
  514909                  1.00   0.00  0.00  0.00  0.00  0.00  0.00  1.00  0.00  0.00
  514910                  1.00   0.00  0.00  0.00  0.00  0.00  0.00  1.00  0.00  0.00
  514913                  1.00   0.01  0.00  0.00  0.00  0.98  0.00  0.00  0.92  0.00
  514917                  6.68   1.00  0.00  0.00  0.00  0.00  0.00  0.00  0.00  0.00
  514935                  1.00   0.00  0.00  0.00  0.00  0.00  0.00  1.00  0.00  0.00
  514936                  1.00   1.00  0.00  0.00  0.00  0.00  0.00  0.00  0.00  0.00
  514938                  1.00   0.00  0.00  0.00  1.00  0.00  0.00  0.00  0.99  0.00
  514939                  1.00   0.00  1.00  0.00  0.00  0.00  0.00  0.00  0.00  0.00
  514950                  1.00   0.00  0.00  0.00  0.00  0.00  0.00  1.00  0.00  0.00
  514955                  9.90   1.00  0.00  0.00  0.00  0.00  0.00  0.00  0.00  0.00
  514960                 32.39   1.00  0.00  0.00  0.00  0.00  0.00  0.00  0.00  0.00
  514961                 19.78   1.00  0.00  0.00  0.00  0.00  0.00  0.00  0.00  0.00
  514965                 22.46   1.00  0.00  0.00  0.00  0.00  0.00  0.00  0.00  0.00
  514966                 10.20   1.00  0.00  0.00  0.00  0.00  0.00  0.00  0.00  0.00
  514968                  1.00   0.00  0.05  0.00  0.00  0.00  0.95  0.00  0.00  0.00
  514971                 24.74   1.00  0.00  0.00  0.00  0.00  0.00  0.00  0.00  0.00
  514973                  1.00   0.00  0.00  0.00  0.99  0.01  0.00  0.00  0.97  0.00
  514974                  1.23   0.00  0.00  0.00  0.00  0.00  0.00  1.00  0.00  0.00
  514975                  1.00   0.01  0.00  0.00  0.01  0.99  0.00  0.00  0.00  0.00
  514976                  2.91   0.01  0.00  0.00  0.00  0.00  0.00  0.99  0.00  0.00
  514978                 19.21   1.00  0.00  0.00  0.00  0.00  0.00  0.00  0.00  0.00
  514979                 18.44   0.00  0.00  0.00  0.00  0.00  0.00  1.00  0.00  0.00
  514982                  1.00   0.00  0.00  0.00  0.00  1.00  0.00  0.00  0.90  0.00
  514983                  1.00   0.00  0.00  0.00  0.00  0.00  0.00  1.00  0.00  0.00
  514986                  8.33   1.00  0.00  0.00  0.00  0.00  0.00  0.00  0.00  0.00
  514987                  2.70   1.00  0.00  0.00  0.00  0.00  0.00  0.00  0.00  0.00
  514991                  1.00   0.00  0.00  0.00  0.00  0.00  0.00  1.00  0.00  0.00
  514992                  1.00   0.00  0.00  0.00  0.00  0.00  0.00  1.00  0.00  0.00
  514998                  1.29   0.00  1.00  0.00  0.00  0.00  0.00  0.00  0.00  0.00
  515003                  1.08   0.00  0.00  0.00  1.00  0.00  0.00  0.00  1.00  0.00
  515004                  1.00   0.00  0.00  0.00  0.00  0.00  0.00  1.00  0.00  0.00
  515007                  1.00   0.00  0.00  0.00  1.00  0.00  0.00  0.00  0.95  0.00
  515008                  1.00   0.01  0.00  0.00  0.93  0.00  0.00  0.05  0.86  0.00
  515013                  3.64   1.00  0.00  0.00  0.00  0.00  0.00  0.00  0.00  0.00
  515014                  1.00   0.00  1.00  0.00  0.00  0.00  0.00  0.00  0.00  0.00
  515019                  1.00   0.00  0.00  0.00  0.00  0.00  0.00  1.00  0.00  0.00
  515020                  1.92   0.00  0.01  0.00  0.09  0.91  0.00  0.00  0.99  0.00
  515028                  1.00   0.00  0.00  0.00  1.00  0.00  0.00  0.00  0.97  0.00
  515029                  1.00   0.00  0.00  0.00  0.00  0.00  0.00  1.00  0.00  0.00
  515031                  1.00   0.00  0.00  0.00  0.00  0.00  0.00  1.00  0.00  0.00
  515035                  5.68   0.00  0.00  0.00  1.00  0.00  0.00  0.00  0.99  0.00
  515037                  7.14   1.00  0.00  0.00  0.00  0.00  0.00  0.00  0.00  0.00
  515040                  1.52   0.00  1.00  0.00  0.00  0.00  0.00  0.00  0.00  0.00
  515092                  1.00   0.00  0.00  0.00  0.00  0.00  0.00  1.00  0.00  0.00
  515093                  1.00   0.01  0.00  0.00  0.00  0.00  0.00  0.99  0.00  0.00
  515094                  1.00   1.00  0.00  0.00  0.00  0.00  0.00  0.00  0.00  0.00
  515108                  1.00   1.00  0.00  0.00  0.00  0.00  0.00  0.00  0.00  0.00
  515109                  1.00   1.00  0.00  0.00  0.00  0.00  0.00  0.00  0.00  0.00
  515110                  1.00   1.00  0.00  0.00  0.00  0.00  0.00  0.00  0.00  0.00
  515111                  1.00   1.00  0.00  0.00  0.00  0.00  0.00  0.00  0.00  0.00
  515112                  1.00   1.00  0.00  0.00  0.00  0.00  0.00  0.00  0.00  0.00
  515115                  5.25   1.00  0.00  0.00  0.00  0.00  0.00  0.00  0.00  0.00
  515116                  1.00   1.00  0.00  0.00  0.00  0.00  0.00  0.00  0.00  0.00
  515117                  1.00   1.00  0.00  0.00  0.00  0.00  0.00  0.00  0.00  0.00
  515119                  1.00   0.00  0.00  0.00  1.00  0.00  0.00  0.00  0.98  0.00
  515120                  1.49   0.00  0.00  0.00  0.47  0.53  0.00  0.00  0.01  0.00
  515121                  1.00   1.00  0.00  0.00  0.00  0.00  0.00  0.00  0.00  0.00
  515161                  1.02   1.00  0.00  0.00  0.00  0.00  0.00  0.00  0.00  0.00
  
  
  *************************
  Conduit Surcharge Summary
  *************************
  
  ----------------------------------------------------------------------------
                                                           Hours        Hours 
                         --------- Hours Full --------   Above Full   Capacity
  Conduit                Both Ends  Upstream  Dnstream   Normal Flow   Limited
  ----------------------------------------------------------------------------
  500597                      0.01      0.01      4.96      0.01         0.01
  500624                      6.14      6.14      8.78      0.01         0.01
  500683                      0.01      0.01      4.96      0.01         0.01
  500829                      0.01      0.01      5.85      0.01         0.01
  501755                      0.01      0.01     10.75      0.01         0.01
  502619                      0.01      0.01      6.82      0.01         0.01
  502800                      4.53      4.53      7.81      0.01         0.01
  502801                      0.01      0.01      3.42      0.01         0.01
  503733                      0.01      0.01      4.77      0.01         0.01
  504377                      0.01      0.01      0.01      7.07         0.01
  508730                      0.01      0.01      0.01      2.50         0.01
  510634                      0.01      0.01      9.99      0.02         0.01
  511244                      0.01      0.01      5.78      0.01         0.01
  511754                      4.52      4.52      4.53      0.05         0.01
  511755                      0.04      0.04      4.52      0.05         0.01
  512404                      0.01      0.01     11.04      0.01         0.01
  513072                      9.99      9.99     12.00      0.01         0.01
  513073                      0.01      0.01      5.73      0.01         0.01
  513251                      0.01      0.01     11.94      0.01         0.01
  514114                      0.01      0.01      3.99      0.01         0.01
  514604                      0.01      0.01      2.93      0.01         0.01
  514715                      0.01      0.01      4.57      0.01         0.01
  514887                      0.01      0.01      0.48      0.01         0.01
  
  
  ***************
  Pumping Summary
  ***************
  
  ---------------------------------------------------------------------------------------------------------
                                                  Min       Avg       Max     Total     Power    % Time Off
                        Percent   Number of      Flow      Flow      Flow    Volume     Usage    Pump Curve
  Pump                 Utilized   Start-Ups       LPS       LPS       LPS  10^6 ltr     Kw-hr    Low   High
  ---------------------------------------------------------------------------------------------------------
  PMP-METRAL-1             0.45           6      0.00     32.97     34.22     0.006      0.11    0.0    0.0
  PMP-METRAL-2             0.06           1      0.00     30.68     34.22     0.001      0.01    0.0    0.0
  PMP-WALL-1               0.20           3      0.00     47.93     78.23     0.004      0.21    0.0    6.6
  PMP-WALL-2               0.04           1      0.00     58.97     78.23     0.001      0.03    0.0   31.7
  PMP-WILLS-1              0.55           5      0.00     25.51     72.02     0.005      0.17    0.0    0.0
  PMP-WILLS-2              0.01           1      0.00     71.50     72.02     0.000      0.00    0.0    0.0
  

  Analysis begun on:  Fri Nov 29 09:27:23 2019
  Analysis ended on:  Fri Nov 29 09:27:43 2019
  Total elapsed time: 00:00:20