
  EPA STORM WATER MANAGEMENT MODEL - VERSION 5.1 (Build 5.1.013)
  --------------------------------------------------------------

  Scenario Run :  BASE 
  
  WARNING 08: elevation drop exceeds length for Conduit 13817.1
  WARNING 08: elevation drop exceeds length for Conduit 13817.2
  WARNING 08: elevation drop exceeds length for Conduit 13820.1
  WARNING 08: elevation drop exceeds length for Conduit 13883.1
  
  *********************************************************
  NOTE: The summary statistics displayed in this report are
  based on results found at every computational time step,  
  not just on results from each reporting time step.
  *********************************************************
  
  ****************
  Analysis Options
  ****************
  Flow Units ............... MGD
  Process Models:
    Rainfall/Runoff ........ NO
    RDII ................... NO
    Snowmelt ............... NO
    Groundwater ............ NO
    Flow Routing ........... YES
    Ponding Allowed ........ YES
    Water Quality .......... NO
  Infiltration Method ...... HORTON
  Flow Routing Method ...... DYNWAVE
  Surcharge Method ......... EXTRAN
  Starting Date ............ 12/07/2012 00:00:00
  Ending Date .............. 12/08/2012 03:00:00
  Antecedent Dry Days ...... 0.0
  Report Time Step ......... 00:15:00
  Wet Time Step ............ 00:05:00
  Dry Time Step ............ 01:00:00
  Routing Time Step ........ 30.00 sec
  Variable Time Step ....... YES
  Maximum Trials ........... 4
  Number of Threads ........ 8
  Head Tolerance ........... 0.005000 ft
  
  
  **************************        Volume         Depth
  Runoff Quantity Continuity     acre-feet        inches
  **************************     ---------       -------
  Total Precipitation ......         0.000         0.000
  Evaporation Loss .........         0.000         0.000
  Infiltration Loss ........         0.000         0.000
  Surface Runoff ...........         0.000         0.000
  Final Storage ............         0.000         0.000
  Continuity Error (%) .....         0.000
  
  
  **************************        Volume        Volume
  Flow Routing Continuity        acre-feet      10^6 gal
  **************************     ---------     ---------
  Dry Weather Inflow .......         0.000         0.000
  Wet Weather Inflow .......         0.000         0.000
  Groundwater Inflow .......         0.000         0.000
  RDII Inflow ..............         0.000         0.000
  External Inflow ..........         0.000         0.000
  External Outflow .........         0.000         0.000
  Flooding Loss ............         0.000         0.000
  Evaporation Loss .........         0.000         0.000
  Exfiltration Loss ........         0.000         0.000
  Initial Stored Volume ....         0.000         0.000
  Final Stored Volume ......         0.000         0.000
  Continuity Error (%) .....         0.000
  
  
  ***************************
  Time-Step Critical Elements
  ***************************
  None
  
  
  ********************************
  Highest Flow Instability Indexes
  ********************************
  All links are stable.
  
  
  ******************
  Node Depth Summary
  ******************
  
  ---------------------------------------------------------------------------------
                                 Average  Maximum  Maximum  Time of Max    Reported
                                   Depth    Depth      HGL   Occurrence   Max Depth
  Node                 Type         Feet     Feet     Feet  days hr:min        Feet
  ---------------------------------------------------------------------------------
  10001                JUNCTION  -nan(ind)     0.00   537.59     0  00:00        0.00
  11690                JUNCTION  -nan(ind)     0.00   333.22     0  00:00        0.00
  11691                JUNCTION  -nan(ind)     0.00   330.33     0  00:00        0.00
  11692                JUNCTION  -nan(ind)     0.00   325.47     0  00:00        0.00
  11693                JUNCTION  -nan(ind)     0.00   322.01     0  00:00        0.00
  11694                JUNCTION  -nan(ind)     0.00   320.80     0  00:00        0.00
  11695                JUNCTION  -nan(ind)     0.00   314.44     0  00:00        0.00
  11696                JUNCTION  -nan(ind)     0.00   303.80     0  00:00        0.00
  11697                JUNCTION  -nan(ind)     0.00   251.05     0  00:00        0.00
  11698                JUNCTION  -nan(ind)     0.00   235.33     0  00:00        0.00
  11705                JUNCTION  -nan(ind)     0.00   334.90     0  00:00        0.00
  11706                JUNCTION  -nan(ind)     0.00   332.66     0  00:00        0.00
  11707                JUNCTION  -nan(ind)     0.00   330.25     0  00:00        0.00
  11708                JUNCTION  -nan(ind)     0.00   326.15     0  00:00        0.00
  11709                JUNCTION  -nan(ind)     0.00   311.76     0  00:00        0.00
  11710                JUNCTION  -nan(ind)     0.00   304.72     0  00:00        0.00
  11728                JUNCTION  -nan(ind)     0.00   302.52     0  00:00        0.00
  11729                JUNCTION  -nan(ind)     0.00   275.59     0  00:00        0.00
  11730                JUNCTION  -nan(ind)     0.00   285.44     0  00:00        0.00
  11731                JUNCTION  -nan(ind)     0.00   297.20     0  00:00        0.00
  11732                JUNCTION  -nan(ind)     0.00   303.87     0  00:00        0.00
  11733                JUNCTION  -nan(ind)     0.00   299.13     0  00:00        0.00
  11734                JUNCTION  -nan(ind)     0.00   301.14     0  00:00        0.00
  11735                JUNCTION  -nan(ind)     0.00   305.62     0  00:00        0.00
  11736                JUNCTION  -nan(ind)     0.00   315.76     0  00:00        0.00
  11737                JUNCTION  -nan(ind)     0.00   310.55     0  00:00        0.00
  11738                JUNCTION  -nan(ind)     0.00   288.67     0  00:00        0.00
  11743                JUNCTION  -nan(ind)     0.00   263.26     0  00:00        0.00
  11744                JUNCTION  -nan(ind)     0.00   302.21     0  00:00        0.00
  11745                JUNCTION  -nan(ind)     0.00   308.05     0  00:00        0.00
  11751                JUNCTION  -nan(ind)     0.00   333.44     0  00:00        0.00
  11752                JUNCTION  -nan(ind)     0.00   354.29     0  00:00        0.00
  11753                JUNCTION  -nan(ind)     0.00   367.80     0  00:00        0.00
  11754                JUNCTION  -nan(ind)     0.00   390.34     0  00:00        0.00
  11755                JUNCTION  -nan(ind)     0.00   409.35     0  00:00        0.00
  11756                JUNCTION  -nan(ind)     0.00   415.48     0  00:00        0.00
  11757                JUNCTION  -nan(ind)     0.00   334.71     0  00:00        0.00
  11758                JUNCTION  -nan(ind)     0.00   379.27     0  00:00        0.00
  11759                JUNCTION  -nan(ind)     0.00   379.63     0  00:00        0.00
  11760                JUNCTION  -nan(ind)     0.00   371.98     0  00:00        0.00
  11761                JUNCTION  -nan(ind)     0.00   361.93     0  00:00        0.00
  11762                JUNCTION  -nan(ind)     0.00   363.96     0  00:00        0.00
  11763                JUNCTION  -nan(ind)     0.00   370.41     0  00:00        0.00
  11764                JUNCTION  -nan(ind)     0.00   345.75     0  00:00        0.00
  11765                JUNCTION  -nan(ind)     0.00   358.37     0  00:00        0.00
  11766                JUNCTION  -nan(ind)     0.00   369.64     0  00:00        0.00
  11767                JUNCTION  -nan(ind)     0.00   356.01     0  00:00        0.00
  11768                JUNCTION  -nan(ind)     0.00   346.95     0  00:00        0.00
  11769                JUNCTION  -nan(ind)     0.00   343.39     0  00:00        0.00
  11770                JUNCTION  -nan(ind)     0.00   338.80     0  00:00        0.00
  11771                JUNCTION  -nan(ind)     0.00   341.87     0  00:00        0.00
  11772                JUNCTION  -nan(ind)     0.00   354.43     0  00:00        0.00
  11773                JUNCTION  -nan(ind)     0.00   354.81     0  00:00        0.00
  11774                JUNCTION  -nan(ind)     0.00   337.05     0  00:00        0.00
  11775                JUNCTION  -nan(ind)     0.00   258.52     0  00:00        0.00
  11776                JUNCTION  -nan(ind)     0.00   347.79     0  00:00        0.00
  11777                JUNCTION  -nan(ind)     0.00   357.20     0  00:00        0.00
  11778                JUNCTION  -nan(ind)     0.00   378.90     0  00:00        0.00
  11779                JUNCTION  -nan(ind)     0.00   378.70     0  00:00        0.00
  11780                JUNCTION  -nan(ind)     0.00   380.88     0  00:00        0.00
  11781                JUNCTION  -nan(ind)     0.00   383.52     0  00:00        0.00
  11782                JUNCTION  -nan(ind)     0.00   396.17     0  00:00        0.00
  11783                JUNCTION  -nan(ind)     0.00   413.81     0  00:00        0.00
  11784                JUNCTION  -nan(ind)     0.00   419.75     0  00:00        0.00
  11785                JUNCTION  -nan(ind)     0.00   421.47     0  00:00        0.00
  11786                JUNCTION  -nan(ind)     0.00   381.00     0  00:00        0.00
  11787                JUNCTION  -nan(ind)     0.00   418.06     0  00:00        0.00
  11788                JUNCTION  -nan(ind)     0.00   425.11     0  00:00        0.00
  11789                JUNCTION  -nan(ind)     0.00   398.90     0  00:00        0.00
  11790                JUNCTION  -nan(ind)     0.00   434.32     0  00:00        0.00
  11791                JUNCTION  -nan(ind)     0.00   443.75     0  00:00        0.00
  11792                JUNCTION  -nan(ind)     0.00   450.66     0  00:00        0.00
  11793                JUNCTION  -nan(ind)     0.00   454.14     0  00:00        0.00
  11794                JUNCTION  -nan(ind)     0.00   442.56     0  00:00        0.00
  11795                JUNCTION  -nan(ind)     0.00   436.75     0  00:00        0.00
  11796                JUNCTION  -nan(ind)     0.00   433.71     0  00:00        0.00
  11797                JUNCTION  -nan(ind)     0.00   430.29     0  00:00        0.00
  11798                JUNCTION  -nan(ind)     0.00   448.10     0  00:00        0.00
  11799                JUNCTION  -nan(ind)     0.00   454.14     0  00:00        0.00
  11800                JUNCTION  -nan(ind)     0.00   393.77     0  00:00        0.00
  11801                JUNCTION  -nan(ind)     0.00   382.87     0  00:00        0.00
  11802                JUNCTION  -nan(ind)     0.00   429.12     0  00:00        0.00
  11803                JUNCTION  -nan(ind)     0.00   375.14     0  00:00        0.00
  11804                JUNCTION  -nan(ind)     0.00   371.55     0  00:00        0.00
  11805                JUNCTION  -nan(ind)     0.00   384.31     0  00:00        0.00
  11806                JUNCTION  -nan(ind)     0.00   362.69     0  00:00        0.00
  11807                JUNCTION  -nan(ind)     0.00   352.84     0  00:00        0.00
  11808                JUNCTION  -nan(ind)     0.00   363.79     0  00:00        0.00
  11809                JUNCTION  -nan(ind)     0.00   351.14     0  00:00        0.00
  11810                JUNCTION  -nan(ind)     0.00   354.77     0  00:00        0.00
  11811                JUNCTION  -nan(ind)     0.00   358.70     0  00:00        0.00
  11812                JUNCTION  -nan(ind)     0.00   355.54     0  00:00        0.00
  11813                JUNCTION  -nan(ind)     0.00   363.95     0  00:00        0.00
  11814                JUNCTION  -nan(ind)     0.00   372.05     0  00:00        0.00
  11815                JUNCTION  -nan(ind)     0.00   353.02     0  00:00        0.00
  11816                JUNCTION  -nan(ind)     0.00   354.24     0  00:00        0.00
  11817                JUNCTION  -nan(ind)     0.00   368.00     0  00:00        0.00
  11818                JUNCTION  -nan(ind)     0.00   382.66     0  00:00        0.00
  11819                JUNCTION  -nan(ind)     0.00   367.83     0  00:00        0.00
  11820                JUNCTION  -nan(ind)     0.00   384.82     0  00:00        0.00
  11821                JUNCTION  -nan(ind)     0.00   370.24     0  00:00        0.00
  11822                JUNCTION  -nan(ind)     0.00   359.50     0  00:00        0.00
  11823                JUNCTION  -nan(ind)     0.00   349.16     0  00:00        0.00
  11824                JUNCTION  -nan(ind)     0.00   247.67     0  00:00        0.00
  11825                JUNCTION  -nan(ind)     0.00   246.69     0  00:00        0.00
  11826                JUNCTION  -nan(ind)     0.00   438.31     0  00:00        0.00
  11827                JUNCTION  -nan(ind)     0.00   440.00     0  00:00        0.00
  11828                JUNCTION  -nan(ind)     0.00   443.19     0  00:00        0.00
  11829                JUNCTION  -nan(ind)     0.00   444.91     0  00:00        0.00
  11830                JUNCTION  -nan(ind)     0.00   425.95     0  00:00        0.00
  11831                JUNCTION  -nan(ind)     0.00   410.57     0  00:00        0.00
  11832                JUNCTION  -nan(ind)     0.00   393.98     0  00:00        0.00
  11833                JUNCTION  -nan(ind)     0.00   402.97     0  00:00        0.00
  11834                JUNCTION  -nan(ind)     0.00   378.91     0  00:00        0.00
  11835                JUNCTION  -nan(ind)     0.00   369.60     0  00:00        0.00
  11836                JUNCTION  -nan(ind)     0.00   367.95     0  00:00        0.00
  11837                JUNCTION  -nan(ind)     0.00   351.29     0  00:00        0.00
  11838                JUNCTION  -nan(ind)     0.00   380.19     0  00:00        0.00
  11839                JUNCTION  -nan(ind)     0.00   388.31     0  00:00        0.00
  11841                JUNCTION  -nan(ind)     0.00   360.00     0  00:00        0.00
  11842                JUNCTION  -nan(ind)     0.00   377.42     0  00:00        0.00
  11843                JUNCTION  -nan(ind)     0.00   363.24     0  00:00        0.00
  11844                JUNCTION  -nan(ind)     0.00   351.50     0  00:00        0.00
  11845                JUNCTION  -nan(ind)     0.00   350.10     0  00:00        0.00
  11846                JUNCTION  -nan(ind)     0.00   349.63     0  00:00        0.00
  11847                JUNCTION  -nan(ind)     0.00   296.40     0  00:00        0.00
  11849                JUNCTION  -nan(ind)     0.00   267.17     0  00:00        0.00
  11850                JUNCTION  -nan(ind)     0.00   265.59     0  00:00        0.00
  11851                JUNCTION  -nan(ind)     0.00   263.10     0  00:00        0.00
  11852                JUNCTION  -nan(ind)     0.00   258.90     0  00:00        0.00
  11853                JUNCTION  -nan(ind)     0.00   255.10     0  00:00        0.00
  11854                JUNCTION  -nan(ind)     0.00   250.10     0  00:00        0.00
  11855                JUNCTION  -nan(ind)     0.00   239.10     0  00:00        0.00
  11856                JUNCTION  -nan(ind)     0.00   236.63     0  00:00        0.00
  11857                JUNCTION  -nan(ind)     0.00   234.19     0  00:00        0.00
  11858                JUNCTION  -nan(ind)     0.00   230.10     0  00:00        0.00
  11859                JUNCTION  -nan(ind)     0.00   221.50     0  00:00        0.00
  11860                JUNCTION  -nan(ind)     0.00   210.25     0  00:00        0.00
  11862                JUNCTION  -nan(ind)     0.00   241.03     0  00:00        0.00
  11863                JUNCTION  -nan(ind)     0.00   267.50     0  00:00        0.00
  11864                JUNCTION  -nan(ind)     0.00   275.00     0  00:00        0.00
  11865                JUNCTION  -nan(ind)     0.00   277.31     0  00:00        0.00
  11866                JUNCTION  -nan(ind)     0.00   279.57     0  00:00        0.00
  11867                JUNCTION  -nan(ind)     0.00   281.83     0  00:00        0.00
  11868                JUNCTION  -nan(ind)     0.00   284.90     0  00:00        0.00
  11869                JUNCTION  -nan(ind)     0.00   298.10     0  00:00        0.00
  11870                JUNCTION  -nan(ind)     0.00   303.10     0  00:00        0.00
  11871                JUNCTION  -nan(ind)     0.00   307.90     0  00:00        0.00
  11872                JUNCTION  -nan(ind)     0.00   313.10     0  00:00        0.00
  11873                JUNCTION  -nan(ind)     0.00   316.68     0  00:00        0.00
  11874                JUNCTION  -nan(ind)     0.00   320.10     0  00:00        0.00
  11875                JUNCTION  -nan(ind)     0.00   323.78     0  00:00        0.00
  11876                JUNCTION  -nan(ind)     0.00   329.45     0  00:00        0.00
  11877                JUNCTION  -nan(ind)     0.00   331.60     0  00:00        0.00
  11878                JUNCTION  -nan(ind)     0.00   333.71     0  00:00        0.00
  11879                JUNCTION  -nan(ind)     0.00   331.77     0  00:00        0.00
  11880                JUNCTION  -nan(ind)     0.00   320.53     0  00:00        0.00
  11881                JUNCTION  -nan(ind)     0.00   311.75     0  00:00        0.00
  11882                JUNCTION  -nan(ind)     0.00   302.40     0  00:00        0.00
  11883                JUNCTION  -nan(ind)     0.00   287.10     0  00:00        0.00
  12111                JUNCTION  -nan(ind)     0.00   393.24     0  00:00        0.00
  12113                JUNCTION  -nan(ind)     0.00   387.50     0  00:00        0.00
  12114                JUNCTION  -nan(ind)     0.00   377.11     0  00:00        0.00
  12115                JUNCTION  -nan(ind)     0.00   357.50     0  00:00        0.00
  12116                JUNCTION  -nan(ind)     0.00   334.58     0  00:00        0.00
  12117                JUNCTION  -nan(ind)     0.00   473.22     0  00:00        0.00
  12118                JUNCTION  -nan(ind)     0.00   473.72     0  00:00        0.00
  12119                JUNCTION  -nan(ind)     0.00   465.45     0  00:00        0.00
  12120                JUNCTION  -nan(ind)     0.00   466.05     0  00:00        0.00
  12121                JUNCTION  -nan(ind)     0.00   459.91     0  00:00        0.00
  12122                JUNCTION  -nan(ind)     0.00   455.33     0  00:00        0.00
  12123                JUNCTION  -nan(ind)     0.00   453.95     0  00:00        0.00
  12124                JUNCTION  -nan(ind)     0.00   455.66     0  00:00        0.00
  12125                JUNCTION  -nan(ind)     0.00   453.80     0  00:00        0.00
  12126                JUNCTION  -nan(ind)     0.00   448.59     0  00:00        0.00
  12127                JUNCTION  -nan(ind)     0.00   446.94     0  00:00        0.00
  12128                JUNCTION  -nan(ind)     0.00   449.40     0  00:00        0.00
  12129                JUNCTION  -nan(ind)     0.00   452.35     0  00:00        0.00
  12130                JUNCTION  -nan(ind)     0.00   441.65     0  00:00        0.00
  12131                JUNCTION  -nan(ind)     0.00   431.62     0  00:00        0.00
  12132                JUNCTION  -nan(ind)     0.00   427.84     0  00:00        0.00
  12133                JUNCTION  -nan(ind)     0.00   422.80     0  00:00        0.00
  12134                JUNCTION  -nan(ind)     0.00   424.09     0  00:00        0.00
  12135                JUNCTION  -nan(ind)     0.00   438.06     0  00:00        0.00
  12136                JUNCTION  -nan(ind)     0.00   404.55     0  00:00        0.00
  12137                JUNCTION  -nan(ind)     0.00   403.80     0  00:00        0.00
  12138                JUNCTION  -nan(ind)     0.00   400.43     0  00:00        0.00
  12139                JUNCTION  -nan(ind)     0.00   401.99     0  00:00        0.00
  12140                JUNCTION  -nan(ind)     0.00   450.35     0  00:00        0.00
  12141                JUNCTION  -nan(ind)     0.00   451.99     0  00:00        0.00
  12142                JUNCTION  -nan(ind)     0.00   455.32     0  00:00        0.00
  12144                JUNCTION  -nan(ind)     0.00   486.41     0  00:00        0.00
  12145                JUNCTION  -nan(ind)     0.00   487.21     0  00:00        0.00
  12146                JUNCTION  -nan(ind)     0.00   480.23     0  00:00        0.00
  12147                JUNCTION  -nan(ind)     0.00   465.65     0  00:00        0.00
  12148                JUNCTION  -nan(ind)     0.00   464.23     0  00:00        0.00
  12149                JUNCTION  -nan(ind)     0.00   462.92     0  00:00        0.00
  12150                JUNCTION  -nan(ind)     0.00   459.73     0  00:00        0.00
  12151                JUNCTION  -nan(ind)     0.00   456.53     0  00:00        0.00
  12152                JUNCTION  -nan(ind)     0.00   441.82     0  00:00        0.00
  12153                JUNCTION  -nan(ind)     0.00   448.52     0  00:00        0.00
  12154                JUNCTION  -nan(ind)     0.00   426.42     0  00:00        0.00
  12155                JUNCTION  -nan(ind)     0.00   428.79     0  00:00        0.00
  12156                JUNCTION  -nan(ind)     0.00   436.22     0  00:00        0.00
  12157                JUNCTION  -nan(ind)     0.00   403.86     0  00:00        0.00
  12158                JUNCTION  -nan(ind)     0.00   454.70     0  00:00        0.00
  12159                JUNCTION  -nan(ind)     0.00   448.50     0  00:00        0.00
  12160                JUNCTION  -nan(ind)     0.00   444.80     0  00:00        0.00
  12161                JUNCTION  -nan(ind)     0.00   457.03     0  00:00        0.00
  12162                JUNCTION  -nan(ind)     0.00   453.15     0  00:00        0.00
  12163                JUNCTION  -nan(ind)     0.00   450.50     0  00:00        0.00
  12164                JUNCTION  -nan(ind)     0.00   459.50     0  00:00        0.00
  12165                JUNCTION  -nan(ind)     0.00   455.50     0  00:00        0.00
  12166                JUNCTION  -nan(ind)     0.00   462.10     0  00:00        0.00
  12167                JUNCTION  -nan(ind)     0.00   460.10     0  00:00        0.00
  12168                JUNCTION  -nan(ind)     0.00   408.44     0  00:00        0.00
  12169                JUNCTION  -nan(ind)     0.00   413.51     0  00:00        0.00
  12170                JUNCTION  -nan(ind)     0.00   421.13     0  00:00        0.00
  12171                JUNCTION  -nan(ind)     0.00   425.85     0  00:00        0.00
  12172                JUNCTION  -nan(ind)     0.00   407.25     0  00:00        0.00
  12173                JUNCTION  -nan(ind)     0.00   411.04     0  00:00        0.00
  12174                JUNCTION  -nan(ind)     0.00   415.70     0  00:00        0.00
  12175                JUNCTION  -nan(ind)     0.00   413.13     0  00:00        0.00
  12176                JUNCTION  -nan(ind)     0.00   442.13     0  00:00        0.00
  12177                JUNCTION  -nan(ind)     0.00   444.39     0  00:00        0.00
  12178                JUNCTION  -nan(ind)     0.00   447.66     0  00:00        0.00
  12179                JUNCTION  -nan(ind)     0.00   342.48     0  00:00        0.00
  12180                JUNCTION  -nan(ind)     0.00   348.58     0  00:00        0.00
  12181                JUNCTION  -nan(ind)     0.00   352.51     0  00:00        0.00
  12182                JUNCTION  -nan(ind)     0.00   356.75     0  00:00        0.00
  12183                JUNCTION  -nan(ind)     0.00   361.00     0  00:00        0.00
  12184                JUNCTION  -nan(ind)     0.00   365.15     0  00:00        0.00
  12185                JUNCTION  -nan(ind)     0.00   369.35     0  00:00        0.00
  12186                JUNCTION  -nan(ind)     0.00   377.85     0  00:00        0.00
  12187                JUNCTION  -nan(ind)     0.00   384.97     0  00:00        0.00
  12188                JUNCTION  -nan(ind)     0.00   401.55     0  00:00        0.00
  12189                JUNCTION  -nan(ind)     0.00   381.83     0  00:00        0.00
  12190                JUNCTION  -nan(ind)     0.00   411.52     0  00:00        0.00
  12191                JUNCTION  -nan(ind)     0.00   413.13     0  00:00        0.00
  12192                JUNCTION  -nan(ind)     0.00   414.09     0  00:00        0.00
  12193                JUNCTION  -nan(ind)     0.00   415.70     0  00:00        0.00
  12194                JUNCTION  -nan(ind)     0.00   416.68     0  00:00        0.00
  12195                JUNCTION  -nan(ind)     0.00   419.26     0  00:00        0.00
  12196                JUNCTION  -nan(ind)     0.00   421.05     0  00:00        0.00
  12197                JUNCTION  -nan(ind)     0.00   421.25     0  00:00        0.00
  12198                JUNCTION  -nan(ind)     0.00   564.09     0  00:00        0.00
  12199                JUNCTION  -nan(ind)     0.00   546.31     0  00:00        0.00
  12200                JUNCTION  -nan(ind)     0.00   576.91     0  00:00        0.00
  12201                JUNCTION  -nan(ind)     0.00   571.02     0  00:00        0.00
  12202                JUNCTION  -nan(ind)     0.00   598.64     0  00:00        0.00
  12203                JUNCTION  -nan(ind)     0.00   587.23     0  00:00        0.00
  12204                JUNCTION  -nan(ind)     0.00   588.64     0  00:00        0.00
  12205                JUNCTION  -nan(ind)     0.00   526.70     0  00:00        0.00
  12206                JUNCTION  -nan(ind)     0.00   607.07     0  00:00        0.00
  12207                JUNCTION  -nan(ind)     0.00   594.90     0  00:00        0.00
  12208                JUNCTION  -nan(ind)     0.00   562.60     0  00:00        0.00
  12209                JUNCTION  -nan(ind)     0.00   596.50     0  00:00        0.00
  12210                JUNCTION  -nan(ind)     0.00   602.93     0  00:00        0.00
  12211                JUNCTION  -nan(ind)     0.00   578.29     0  00:00        0.00
  12212                JUNCTION  -nan(ind)     0.00   520.88     0  00:00        0.00
  12213                JUNCTION  -nan(ind)     0.00   601.00     0  00:00        0.00
  12214                JUNCTION  -nan(ind)     0.00   606.04     0  00:00        0.00
  12215                JUNCTION  -nan(ind)     0.00   604.55     0  00:00        0.00
  12216                JUNCTION  -nan(ind)     0.00   598.68     0  00:00        0.00
  12217                JUNCTION  -nan(ind)     0.00   600.61     0  00:00        0.00
  12218                JUNCTION  -nan(ind)     0.00   581.48     0  00:00        0.00
  12219                JUNCTION  -nan(ind)     0.00   567.35     0  00:00        0.00
  12220                JUNCTION  -nan(ind)     0.00   546.26     0  00:00        0.00
  12221                JUNCTION  -nan(ind)     0.00   595.48     0  00:00        0.00
  12222                JUNCTION  -nan(ind)     0.00   512.67     0  00:00        0.00
  12223                JUNCTION  -nan(ind)     0.00   604.02     0  00:00        0.00
  12224                JUNCTION  -nan(ind)     0.00   593.21     0  00:00        0.00
  12225                JUNCTION  -nan(ind)     0.00   600.93     0  00:00        0.00
  12226                JUNCTION  -nan(ind)     0.00   607.55     0  00:00        0.00
  12227                JUNCTION  -nan(ind)     0.00   611.09     0  00:00        0.00
  12228                JUNCTION  -nan(ind)     0.00   591.27     0  00:00        0.00
  12229                JUNCTION  -nan(ind)     0.00   608.88     0  00:00        0.00
  12230                JUNCTION  -nan(ind)     0.00   575.60     0  00:00        0.00
  12231                JUNCTION  -nan(ind)     0.00   562.45     0  00:00        0.00
  12232                JUNCTION  -nan(ind)     0.00   541.80     0  00:00        0.00
  12233                JUNCTION  -nan(ind)     0.00   588.68     0  00:00        0.00
  12234                JUNCTION  -nan(ind)     0.00   604.93     0  00:00        0.00
  12235                JUNCTION  -nan(ind)     0.00   595.62     0  00:00        0.00
  12236                JUNCTION  -nan(ind)     0.00   586.95     0  00:00        0.00
  12237                JUNCTION  -nan(ind)     0.00   601.20     0  00:00        0.00
  12238                JUNCTION  -nan(ind)     0.00   507.04     0  00:00        0.00
  12239                JUNCTION  -nan(ind)     0.00   607.03     0  00:00        0.00
  12240                JUNCTION  -nan(ind)     0.00   593.97     0  00:00        0.00
  12241                JUNCTION  -nan(ind)     0.00   591.45     0  00:00        0.00
  12242                JUNCTION  -nan(ind)     0.00   532.78     0  00:00        0.00
  12243                JUNCTION  -nan(ind)     0.00   557.10     0  00:00        0.00
  12244                JUNCTION  -nan(ind)     0.00   502.44     0  00:00        0.00
  12245                JUNCTION  -nan(ind)     0.00   582.76     0  00:00        0.00
  12246                JUNCTION  -nan(ind)     0.00   568.71     0  00:00        0.00
  12247                JUNCTION  -nan(ind)     0.00   595.53     0  00:00        0.00
  12248                JUNCTION  -nan(ind)     0.00   587.84     0  00:00        0.00
  12249                JUNCTION  -nan(ind)     0.00   582.85     0  00:00        0.00
  12250                JUNCTION  -nan(ind)     0.00   590.27     0  00:00        0.00
  12251                JUNCTION  -nan(ind)     0.00   576.72     0  00:00        0.00
  12252                JUNCTION  -nan(ind)     0.00   584.67     0  00:00        0.00
  12253                JUNCTION  -nan(ind)     0.00   597.17     0  00:00        0.00
  12254                JUNCTION  -nan(ind)     0.00   578.83     0  00:00        0.00
  12255                JUNCTION  -nan(ind)     0.00   559.98     0  00:00        0.00
  12256                JUNCTION  -nan(ind)     0.00   538.97     0  00:00        0.00
  12257                JUNCTION  -nan(ind)     0.00   513.74     0  00:00        0.00
  12258                JUNCTION  -nan(ind)     0.00   495.20     0  00:00        0.00
  12259                JUNCTION  -nan(ind)     0.00   574.45     0  00:00        0.00
  12260                JUNCTION  -nan(ind)     0.00   581.51     0  00:00        0.00
  12261                JUNCTION  -nan(ind)     0.00   592.50     0  00:00        0.00
  12262                JUNCTION  -nan(ind)     0.00   578.98     0  00:00        0.00
  12263                JUNCTION  -nan(ind)     0.00   568.48     0  00:00        0.00
  12264                JUNCTION  -nan(ind)     0.00   587.05     0  00:00        0.00
  12265                JUNCTION  -nan(ind)     0.00   523.48     0  00:00        0.00
  12266                JUNCTION  -nan(ind)     0.00   516.03     0  00:00        0.00
  12267                JUNCTION  -nan(ind)     0.00   565.12     0  00:00        0.00
  12268                JUNCTION  -nan(ind)     0.00   490.25     0  00:00        0.00
  12269                JUNCTION  -nan(ind)     0.00   547.51     0  00:00        0.00
  12270                JUNCTION  -nan(ind)     0.00   540.46     0  00:00        0.00
  12271                JUNCTION  -nan(ind)     0.00   573.72     0  00:00        0.00
  12272                JUNCTION  -nan(ind)     0.00   562.49     0  00:00        0.00
  12273                JUNCTION  -nan(ind)     0.00   546.04     0  00:00        0.00
  12274                JUNCTION  -nan(ind)     0.00   557.77     0  00:00        0.00
  12275                JUNCTION  -nan(ind)     0.00   571.53     0  00:00        0.00
  12276                JUNCTION  -nan(ind)     0.00   590.60     0  00:00        0.00
  12277                JUNCTION  -nan(ind)     0.00   568.14     0  00:00        0.00
  12278                JUNCTION  -nan(ind)     0.00   580.59     0  00:00        0.00
  12279                JUNCTION  -nan(ind)     0.00   585.84     0  00:00        0.00
  12280                JUNCTION  -nan(ind)     0.00   521.33     0  00:00        0.00
  12281                JUNCTION  -nan(ind)     0.00   570.55     0  00:00        0.00
  12282                JUNCTION  -nan(ind)     0.00   577.34     0  00:00        0.00
  12283                JUNCTION  -nan(ind)     0.00   555.90     0  00:00        0.00
  12284                JUNCTION  -nan(ind)     0.00   549.80     0  00:00        0.00
  12285                JUNCTION  -nan(ind)     0.00   496.23     0  00:00        0.00
  12286                JUNCTION  -nan(ind)     0.00   575.58     0  00:00        0.00
  12287                JUNCTION  -nan(ind)     0.00   568.84     0  00:00        0.00
  12288                JUNCTION  -nan(ind)     0.00   580.04     0  00:00        0.00
  12289                JUNCTION  -nan(ind)     0.00   495.67     0  00:00        0.00
  12290                JUNCTION  -nan(ind)     0.00   487.90     0  00:00        0.00
  12291                JUNCTION  -nan(ind)     0.00   580.29     0  00:00        0.00
  12292                JUNCTION  -nan(ind)     0.00   554.68     0  00:00        0.00
  12293                JUNCTION  -nan(ind)     0.00   523.59     0  00:00        0.00
  12294                JUNCTION  -nan(ind)     0.00   565.71     0  00:00        0.00
  12295                JUNCTION  -nan(ind)     0.00   567.59     0  00:00        0.00
  12296                JUNCTION  -nan(ind)     0.00   571.19     0  00:00        0.00
  12297                JUNCTION  -nan(ind)     0.00   581.80     0  00:00        0.00
  12298                JUNCTION  -nan(ind)     0.00   554.20     0  00:00        0.00
  12299                JUNCTION  -nan(ind)     0.00   572.28     0  00:00        0.00
  12301                JUNCTION  -nan(ind)     0.00   584.06     0  00:00        0.00
  12302                JUNCTION  -nan(ind)     0.00   486.22     0  00:00        0.00
  12303                JUNCTION  -nan(ind)     0.00   552.15     0  00:00        0.00
  12304                JUNCTION  -nan(ind)     0.00   511.48     0  00:00        0.00
  12305                JUNCTION  -nan(ind)     0.00   571.41     0  00:00        0.00
  12306                JUNCTION  -nan(ind)     0.00   559.60     0  00:00        0.00
  12307                JUNCTION  -nan(ind)     0.00   559.71     0  00:00        0.00
  12308                JUNCTION  -nan(ind)     0.00   518.24     0  00:00        0.00
  12309                JUNCTION  -nan(ind)     0.00   575.91     0  00:00        0.00
  12310                JUNCTION  -nan(ind)     0.00   553.04     0  00:00        0.00
  12311                JUNCTION  -nan(ind)     0.00   590.10     0  00:00        0.00
  12312                JUNCTION  -nan(ind)     0.00   557.80     0  00:00        0.00
  12313                JUNCTION  -nan(ind)     0.00   565.60     0  00:00        0.00
  12314                JUNCTION  -nan(ind)     0.00   528.93     0  00:00        0.00
  12315                JUNCTION  -nan(ind)     0.00   484.23     0  00:00        0.00
  12316                JUNCTION  -nan(ind)     0.00   591.52     0  00:00        0.00
  12317                JUNCTION  -nan(ind)     0.00   563.63     0  00:00        0.00
  12318                JUNCTION  -nan(ind)     0.00   543.57     0  00:00        0.00
  12319                JUNCTION  -nan(ind)     0.00   542.71     0  00:00        0.00
  12320                JUNCTION  -nan(ind)     0.00   554.06     0  00:00        0.00
  12321                JUNCTION  -nan(ind)     0.00   563.98     0  00:00        0.00
  12322                JUNCTION  -nan(ind)     0.00   536.49     0  00:00        0.00
  12323                JUNCTION  -nan(ind)     0.00   571.03     0  00:00        0.00
  12324                JUNCTION  -nan(ind)     0.00   507.23     0  00:00        0.00
  12325                JUNCTION  -nan(ind)     0.00   506.62     0  00:00        0.00
  12326                JUNCTION  -nan(ind)     0.00   477.38     0  00:00        0.00
  12327                JUNCTION  -nan(ind)     0.00   556.53     0  00:00        0.00
  12328                JUNCTION  -nan(ind)     0.00   510.16     0  00:00        0.00
  12329                JUNCTION  -nan(ind)     0.00   540.30     0  00:00        0.00
  12330                JUNCTION  -nan(ind)     0.00   540.44     0  00:00        0.00
  12331                JUNCTION  -nan(ind)     0.00   476.12     0  00:00        0.00
  12332                JUNCTION  -nan(ind)     0.00   514.20     0  00:00        0.00
  12333                JUNCTION  -nan(ind)     0.00   524.00     0  00:00        0.00
  12334                JUNCTION  -nan(ind)     0.00   538.19     0  00:00        0.00
  12335                JUNCTION  -nan(ind)     0.00   518.39     0  00:00        0.00
  12336                JUNCTION  -nan(ind)     0.00   520.93     0  00:00        0.00
  12337                JUNCTION  -nan(ind)     0.00   518.52     0  00:00        0.00
  12338                JUNCTION  -nan(ind)     0.00   533.70     0  00:00        0.00
  12339                JUNCTION  -nan(ind)     0.00   534.02     0  00:00        0.00
  12340                JUNCTION  -nan(ind)     0.00   474.47     0  00:00        0.00
  12341                JUNCTION  -nan(ind)     0.00   532.75     0  00:00        0.00
  12342                JUNCTION  -nan(ind)     0.00   481.50     0  00:00        0.00
  12343                JUNCTION  -nan(ind)     0.00   531.89     0  00:00        0.00
  12344                JUNCTION  -nan(ind)     0.00   467.20     0  00:00        0.00
  12345                JUNCTION  -nan(ind)     0.00   498.85     0  00:00        0.00
  12346                JUNCTION  -nan(ind)     0.00   530.57     0  00:00        0.00
  12348                JUNCTION  -nan(ind)     0.00   514.90     0  00:00        0.00
  12349                JUNCTION  -nan(ind)     0.00   500.72     0  00:00        0.00
  12350                JUNCTION  -nan(ind)     0.00   523.20     0  00:00        0.00
  12351                JUNCTION  -nan(ind)     0.00   511.82     0  00:00        0.00
  12591                JUNCTION  -nan(ind)     0.00   440.90     0  00:00        0.00
  12592                JUNCTION  -nan(ind)     0.00   446.16     0  00:00        0.00
  12594                JUNCTION  -nan(ind)     0.00   429.23     0  00:00        0.00
  12595                JUNCTION  -nan(ind)     0.00   404.80     0  00:00        0.00
  12596                JUNCTION  -nan(ind)     0.00   381.94     0  00:00        0.00
  12597                JUNCTION  -nan(ind)     0.00   377.09     0  00:00        0.00
  12598                JUNCTION  -nan(ind)     0.00   374.90     0  00:00        0.00
  12599                JUNCTION  -nan(ind)     0.00   373.50     0  00:00        0.00
  12601                JUNCTION  -nan(ind)     0.00   391.10     0  00:00        0.00
  12602                JUNCTION  -nan(ind)     0.00   396.44     0  00:00        0.00
  12603                JUNCTION  -nan(ind)     0.00   401.44     0  00:00        0.00
  12604                JUNCTION  -nan(ind)     0.00   379.27     0  00:00        0.00
  12605                JUNCTION  -nan(ind)     0.00   377.52     0  00:00        0.00
  12607                JUNCTION  -nan(ind)     0.00   353.63     0  00:00        0.00
  12609                JUNCTION  -nan(ind)     0.00   393.33     0  00:00        0.00
  12610                JUNCTION  -nan(ind)     0.00   383.59     0  00:00        0.00
  12611                JUNCTION  -nan(ind)     0.00   400.54     0  00:00        0.00
  12612                JUNCTION  -nan(ind)     0.00   396.74     0  00:00        0.00
  12614                JUNCTION  -nan(ind)     0.00   389.38     0  00:00        0.00
  12615                JUNCTION  -nan(ind)     0.00   395.47     0  00:00        0.00
  12616                JUNCTION  -nan(ind)     0.00   380.28     0  00:00        0.00
  12619                JUNCTION  -nan(ind)     0.00   384.14     0  00:00        0.00
  12620                JUNCTION  -nan(ind)     0.00   380.76     0  00:00        0.00
  12621                JUNCTION  -nan(ind)     0.00   377.50     0  00:00        0.00
  12623                JUNCTION  -nan(ind)     0.00   407.89     0  00:00        0.00
  12624                JUNCTION  -nan(ind)     0.00   411.29     0  00:00        0.00
  12625                JUNCTION  -nan(ind)     0.00   407.47     0  00:00        0.00
  12626                JUNCTION  -nan(ind)     0.00   413.93     0  00:00        0.00
  12627                JUNCTION  -nan(ind)     0.00   410.47     0  00:00        0.00
  12628                JUNCTION  -nan(ind)     0.00   429.41     0  00:00        0.00
  12629                JUNCTION  -nan(ind)     0.00   439.80     0  00:00        0.00
  12630                JUNCTION  -nan(ind)     0.00   434.33     0  00:00        0.00
  12631                JUNCTION  -nan(ind)     0.00   432.39     0  00:00        0.00
  12632                JUNCTION  -nan(ind)     0.00   436.12     0  00:00        0.00
  12633                JUNCTION  -nan(ind)     0.00   448.93     0  00:00        0.00
  12634                JUNCTION  -nan(ind)     0.00   442.71     0  00:00        0.00
  12635                JUNCTION  -nan(ind)     0.00   453.53     0  00:00        0.00
  12636                JUNCTION  -nan(ind)     0.00   448.44     0  00:00        0.00
  12637                JUNCTION  -nan(ind)     0.00   384.81     0  00:00        0.00
  12638                JUNCTION  -nan(ind)     0.00   385.44     0  00:00        0.00
  12640                JUNCTION  -nan(ind)     0.00   383.92     0  00:00        0.00
  12641                JUNCTION  -nan(ind)     0.00   404.16     0  00:00        0.00
  12642                JUNCTION  -nan(ind)     0.00   390.80     0  00:00        0.00
  12643                JUNCTION  -nan(ind)     0.00   379.62     0  00:00        0.00
  12645                JUNCTION  -nan(ind)     0.00   427.63     0  00:00        0.00
  12646                JUNCTION  -nan(ind)     0.00   420.14     0  00:00        0.00
  12647                JUNCTION  -nan(ind)     0.00   381.81     0  00:00        0.00
  12648                JUNCTION  -nan(ind)     0.00   383.17     0  00:00        0.00
  12649                JUNCTION  -nan(ind)     0.00   389.10     0  00:00        0.00
  12650                JUNCTION  -nan(ind)     0.00   386.10     0  00:00        0.00
  12652                JUNCTION  -nan(ind)     0.00   382.51     0  00:00        0.00
  12653                JUNCTION  -nan(ind)     0.00   386.61     0  00:00        0.00
  12654                JUNCTION  -nan(ind)     0.00   390.90     0  00:00        0.00
  12655                JUNCTION  -nan(ind)     0.00   393.96     0  00:00        0.00
  12656                JUNCTION  -nan(ind)     0.00   397.50     0  00:00        0.00
  12657                JUNCTION  -nan(ind)     0.00   395.34     0  00:00        0.00
  12677                JUNCTION  -nan(ind)     0.00   418.18     0  00:00        0.00
  12678                JUNCTION  -nan(ind)     0.00   412.49     0  00:00        0.00
  12679                JUNCTION  -nan(ind)     0.00   413.81     0  00:00        0.00
  12680                JUNCTION  -nan(ind)     0.00   418.98     0  00:00        0.00
  12682                JUNCTION  -nan(ind)     0.00   425.86     0  00:00        0.00
  12684                JUNCTION  -nan(ind)     0.00   429.12     0  00:00        0.00
  12685                JUNCTION  -nan(ind)     0.00   431.36     0  00:00        0.00
  12686                JUNCTION  -nan(ind)     0.00   430.08     0  00:00        0.00
  12687                JUNCTION  -nan(ind)     0.00   422.89     0  00:00        0.00
  12688                JUNCTION  -nan(ind)     0.00   424.66     0  00:00        0.00
  12689                JUNCTION  -nan(ind)     0.00   410.70     0  00:00        0.00
  12690                JUNCTION  -nan(ind)     0.00   413.59     0  00:00        0.00
  12691                JUNCTION  -nan(ind)     0.00   407.02     0  00:00        0.00
  12693                JUNCTION  -nan(ind)     0.00   380.00     0  00:00        0.00
  12782                JUNCTION  -nan(ind)     0.00   557.12     0  00:00        0.00
  12783                JUNCTION  -nan(ind)     0.00   553.32     0  00:00        0.00
  12784                JUNCTION  -nan(ind)     0.00   550.99     0  00:00        0.00
  12785                JUNCTION  -nan(ind)     0.00   549.07     0  00:00        0.00
  12786                JUNCTION  -nan(ind)     0.00   545.30     0  00:00        0.00
  12787                JUNCTION  -nan(ind)     0.00   543.38     0  00:00        0.00
  12788                JUNCTION  -nan(ind)     0.00   542.49     0  00:00        0.00
  12789                JUNCTION  -nan(ind)     0.00   541.13     0  00:00        0.00
  12791                JUNCTION  -nan(ind)     0.00   539.54     0  00:00        0.00
  12792                JUNCTION  -nan(ind)     0.00   537.35     0  00:00        0.00
  12793                JUNCTION  -nan(ind)     0.00   534.24     0  00:00        0.00
  12794                JUNCTION  -nan(ind)     0.00   533.00     0  00:00        0.00
  12795                JUNCTION  -nan(ind)     0.00   545.25     0  00:00        0.00
  12796                JUNCTION  -nan(ind)     0.00   548.83     0  00:00        0.00
  12797                JUNCTION  -nan(ind)     0.00   535.87     0  00:00        0.00
  12798                JUNCTION  -nan(ind)     0.00   535.33     0  00:00        0.00
  12799                JUNCTION  -nan(ind)     0.00   551.84     0  00:00        0.00
  12801                JUNCTION  -nan(ind)     0.00   547.86     0  00:00        0.00
  12802                JUNCTION  -nan(ind)     0.00   541.02     0  00:00        0.00
  12803                JUNCTION  -nan(ind)     0.00   543.04     0  00:00        0.00
  12804                JUNCTION  -nan(ind)     0.00   546.71     0  00:00        0.00
  12805                JUNCTION  -nan(ind)     0.00   537.46     0  00:00        0.00
  12806                JUNCTION  -nan(ind)     0.00   509.49     0  00:00        0.00
  12807                JUNCTION  -nan(ind)     0.00   510.32     0  00:00        0.00
  12808                JUNCTION  -nan(ind)     0.00   505.76     0  00:00        0.00
  12809                JUNCTION  -nan(ind)     0.00   539.93     0  00:00        0.00
  12810                JUNCTION  -nan(ind)     0.00   528.40     0  00:00        0.00
  12811                JUNCTION  -nan(ind)     0.00   515.50     0  00:00        0.00
  12812                JUNCTION  -nan(ind)     0.00   517.00     0  00:00        0.00
  12813                JUNCTION  -nan(ind)     0.00   522.98     0  00:00        0.00
  12814                JUNCTION  -nan(ind)     0.00   535.45     0  00:00        0.00
  12817                JUNCTION  -nan(ind)     0.00   540.29     0  00:00        0.00
  12818                JUNCTION  -nan(ind)     0.00   500.65     0  00:00        0.00
  12819                JUNCTION  -nan(ind)     0.00   499.30     0  00:00        0.00
  12820                JUNCTION  -nan(ind)     0.00   503.30     0  00:00        0.00
  12821                JUNCTION  -nan(ind)     0.00   511.97     0  00:00        0.00
  12822                JUNCTION  -nan(ind)     0.00   504.75     0  00:00        0.00
  12823                JUNCTION  -nan(ind)     0.00   513.56     0  00:00        0.00
  12826                JUNCTION  -nan(ind)     0.00   516.50     0  00:00        0.00
  12827                JUNCTION  -nan(ind)     0.00   517.08     0  00:00        0.00
  12828                JUNCTION  -nan(ind)     0.00   510.86     0  00:00        0.00
  12829                JUNCTION  -nan(ind)     0.00   507.34     0  00:00        0.00
  12834                JUNCTION  -nan(ind)     0.00   433.64     0  00:00        0.00
  12835                JUNCTION  -nan(ind)     0.00   437.63     0  00:00        0.00
  12836                JUNCTION  -nan(ind)     0.00   450.20     0  00:00        0.00
  12837                JUNCTION  -nan(ind)     0.00   465.00     0  00:00        0.00
  12838                JUNCTION  -nan(ind)     0.00   478.40     0  00:00        0.00
  12839                JUNCTION  -nan(ind)     0.00   491.40     0  00:00        0.00
  12841                JUNCTION  -nan(ind)     0.00   480.57     0  00:00        0.00
  12842                JUNCTION  -nan(ind)     0.00   461.32     0  00:00        0.00
  12843                JUNCTION  -nan(ind)     0.00   448.92     0  00:00        0.00
  12844                JUNCTION  -nan(ind)     0.00   424.20     0  00:00        0.00
  12845                JUNCTION  -nan(ind)     0.00   438.26     0  00:00        0.00
  12846                JUNCTION  -nan(ind)     0.00   451.96     0  00:00        0.00
  12847                JUNCTION  -nan(ind)     0.00   465.40     0  00:00        0.00
  12851                JUNCTION  -nan(ind)     0.00   485.90     0  00:00        0.00
  12852                JUNCTION  -nan(ind)     0.00   483.64     0  00:00        0.00
  12853                JUNCTION  -nan(ind)     0.00   480.67     0  00:00        0.00
  12854                JUNCTION  -nan(ind)     0.00   477.30     0  00:00        0.00
  12855                JUNCTION  -nan(ind)     0.00   531.17     0  00:00        0.00
  12856                JUNCTION  -nan(ind)     0.00   534.85     0  00:00        0.00
  12857                JUNCTION  -nan(ind)     0.00   527.96     0  00:00        0.00
  12858                JUNCTION  -nan(ind)     0.00   532.23     0  00:00        0.00
  12859                JUNCTION  -nan(ind)     0.00   522.93     0  00:00        0.00
  12861                JUNCTION  -nan(ind)     0.00   527.73     0  00:00        0.00
  12862                JUNCTION  -nan(ind)     0.00   523.22     0  00:00        0.00
  12863                JUNCTION  -nan(ind)     0.00   522.18     0  00:00        0.00
  12864                JUNCTION  -nan(ind)     0.00   517.05     0  00:00        0.00
  12883                JUNCTION  -nan(ind)     0.00   571.10     0  00:00        0.00
  12884                JUNCTION  -nan(ind)     0.00   565.70     0  00:00        0.00
  12885                JUNCTION  -nan(ind)     0.00   560.30     0  00:00        0.00
  12886                JUNCTION  -nan(ind)     0.00   548.00     0  00:00        0.00
  12888                JUNCTION  -nan(ind)     0.00   540.80     0  00:00        0.00
  12889                JUNCTION  -nan(ind)     0.00   535.80     0  00:00        0.00
  12890                JUNCTION  -nan(ind)     0.00   529.48     0  00:00        0.00
  12891                JUNCTION  -nan(ind)     0.00   526.80     0  00:00        0.00
  12928                JUNCTION  -nan(ind)     0.00   576.71     0  00:00        0.00
  12929                JUNCTION  -nan(ind)     0.00   573.85     0  00:00        0.00
  12941                JUNCTION  -nan(ind)     0.00   574.18     0  00:00        0.00
  12942                JUNCTION  -nan(ind)     0.00   571.92     0  00:00        0.00
  12943                JUNCTION  -nan(ind)     0.00   569.70     0  00:00        0.00
  12944                JUNCTION  -nan(ind)     0.00   567.44     0  00:00        0.00
  12948                JUNCTION  -nan(ind)     0.00   576.64     0  00:00        0.00
  12949                JUNCTION  -nan(ind)     0.00   573.92     0  00:00        0.00
  12950                JUNCTION  -nan(ind)     0.00   572.42     0  00:00        0.00
  12952                JUNCTION  -nan(ind)     0.00   569.61     0  00:00        0.00
  12953                JUNCTION  -nan(ind)     0.00   563.95     0  00:00        0.00
  12954                JUNCTION  -nan(ind)     0.00   566.66     0  00:00        0.00
  12955                JUNCTION  -nan(ind)     0.00   562.04     0  00:00        0.00
  12958                JUNCTION  -nan(ind)     0.00   563.05     0  00:00        0.00
  12959                JUNCTION  -nan(ind)     0.00   571.69     0  00:00        0.00
  12960                JUNCTION  -nan(ind)     0.00   569.28     0  00:00        0.00
  12962                JUNCTION  -nan(ind)     0.00   566.63     0  00:00        0.00
  12963                JUNCTION  -nan(ind)     0.00   517.93     0  00:00        0.00
  12964                JUNCTION  -nan(ind)     0.00   507.64     0  00:00        0.00
  12965                JUNCTION  -nan(ind)     0.00   487.88     0  00:00        0.00
  12966                JUNCTION  -nan(ind)     0.00   492.13     0  00:00        0.00
  12970                JUNCTION  -nan(ind)     0.00   543.37     0  00:00        0.00
  12971                JUNCTION  -nan(ind)     0.00   542.17     0  00:00        0.00
  12972                JUNCTION  -nan(ind)     0.00   547.79     0  00:00        0.00
  12973                JUNCTION  -nan(ind)     0.00   556.58     0  00:00        0.00
  12974                JUNCTION  -nan(ind)     0.00   538.16     0  00:00        0.00
  12975                JUNCTION  -nan(ind)     0.00   529.36     0  00:00        0.00
  12976                JUNCTION  -nan(ind)     0.00   521.19     0  00:00        0.00
  12977                JUNCTION  -nan(ind)     0.00   524.05     0  00:00        0.00
  12978                JUNCTION  -nan(ind)     0.00   526.60     0  00:00        0.00
  12979                JUNCTION  -nan(ind)     0.00   532.33     0  00:00        0.00
  12980                JUNCTION  -nan(ind)     0.00   541.66     0  00:00        0.00
  12981                JUNCTION  -nan(ind)     0.00   546.74     0  00:00        0.00
  12982                JUNCTION  -nan(ind)     0.00   520.09     0  00:00        0.00
  12983                JUNCTION  -nan(ind)     0.00   518.12     0  00:00        0.00
  12984                JUNCTION  -nan(ind)     0.00   514.64     0  00:00        0.00
  1310                 JUNCTION  -nan(ind)     0.00   601.50     0  00:00        0.00
  13107                JUNCTION  -nan(ind)     0.00   684.04     0  00:00        0.00
  13110                JUNCTION  -nan(ind)     0.00   690.08     0  00:00        0.00
  13111                JUNCTION  -nan(ind)     0.00   671.95     0  00:00        0.00
  13112                JUNCTION  -nan(ind)     0.00   677.09     0  00:00        0.00
  13113                JUNCTION  -nan(ind)     0.00   658.50     0  00:00        0.00
  13114                JUNCTION  -nan(ind)     0.00   651.35     0  00:00        0.00
  13115                JUNCTION  -nan(ind)     0.00   641.08     0  00:00        0.00
  13117                JUNCTION  -nan(ind)     0.00   637.78     0  00:00        0.00
  13118                JUNCTION  -nan(ind)     0.00   637.00     0  00:00        0.00
  13119                JUNCTION  -nan(ind)     0.00   634.56     0  00:00        0.00
  13120                JUNCTION  -nan(ind)     0.00   632.18     0  00:00        0.00
  13122                JUNCTION  -nan(ind)     0.00   630.02     0  00:00        0.00
  13123                JUNCTION  -nan(ind)     0.00   627.23     0  00:00        0.00
  13129                JUNCTION  -nan(ind)     0.00   598.75     0  00:00        0.00
  13130                JUNCTION  -nan(ind)     0.00   610.88     0  00:00        0.00
  13131                JUNCTION  -nan(ind)     0.00   595.70     0  00:00        0.00
  13132                JUNCTION  -nan(ind)     0.00   596.58     0  00:00        0.00
  13133                JUNCTION  -nan(ind)     0.00   598.75     0  00:00        0.00
  13134                JUNCTION  -nan(ind)     0.00   585.25     0  00:00        0.00
  13135                JUNCTION  -nan(ind)     0.00   581.40     0  00:00        0.00
  13136                JUNCTION  -nan(ind)     0.00   576.65     0  00:00        0.00
  13137                JUNCTION  -nan(ind)     0.00   567.88     0  00:00        0.00
  13139                JUNCTION  -nan(ind)     0.00   558.10     0  00:00        0.00
  13140                JUNCTION  -nan(ind)     0.00   549.13     0  00:00        0.00
  13141                JUNCTION  -nan(ind)     0.00   540.63     0  00:00        0.00
  13142                JUNCTION  -nan(ind)     0.00   538.08     0  00:00        0.00
  13143                JUNCTION  -nan(ind)     0.00   533.96     0  00:00        0.00
  13144                JUNCTION  -nan(ind)     0.00   530.85     0  00:00        0.00
  13149                JUNCTION  -nan(ind)     0.00   753.34     0  00:00        0.00
  13150                JUNCTION  -nan(ind)     0.00   768.90     0  00:00        0.00
  13151                JUNCTION  -nan(ind)     0.00   735.34     0  00:00        0.00
  13152                JUNCTION  -nan(ind)     0.00   713.62     0  00:00        0.00
  13153                JUNCTION  -nan(ind)     0.00   694.92     0  00:00        0.00
  13154                JUNCTION  -nan(ind)     0.00   676.22     0  00:00        0.00
  13155                JUNCTION  -nan(ind)     0.00   663.70     0  00:00        0.00
  13156                JUNCTION  -nan(ind)     0.00   680.74     0  00:00        0.00
  13157                JUNCTION  -nan(ind)     0.00   711.73     0  00:00        0.00
  13158                JUNCTION  -nan(ind)     0.00   693.58     0  00:00        0.00
  13159                JUNCTION  -nan(ind)     0.00   694.44     0  00:00        0.00
  13160                JUNCTION  -nan(ind)     0.00   685.12     0  00:00        0.00
  13161                JUNCTION  -nan(ind)     0.00   670.04     0  00:00        0.00
  13162                JUNCTION  -nan(ind)     0.00   662.59     0  00:00        0.00
  13189                JUNCTION  -nan(ind)     0.00   680.23     0  00:00        0.00
  13190                JUNCTION  -nan(ind)     0.00   672.95     0  00:00        0.00
  13191                JUNCTION  -nan(ind)     0.00   698.00     0  00:00        0.00
  13192                JUNCTION  -nan(ind)     0.00   713.30     0  00:00        0.00
  13193                JUNCTION  -nan(ind)     0.00   728.88     0  00:00        0.00
  13194                JUNCTION  -nan(ind)     0.00   738.60     0  00:00        0.00
  13195                JUNCTION  -nan(ind)     0.00   694.62     0  00:00        0.00
  13196                JUNCTION  -nan(ind)     0.00   721.21     0  00:00        0.00
  13197                JUNCTION  -nan(ind)     0.00   725.35     0  00:00        0.00
  13198                JUNCTION  -nan(ind)     0.00   716.82     0  00:00        0.00
  13199                JUNCTION  -nan(ind)     0.00   702.71     0  00:00        0.00
  13200                JUNCTION  -nan(ind)     0.00   742.45     0  00:00        0.00
  13201                JUNCTION  -nan(ind)     0.00   736.41     0  00:00        0.00
  13202                JUNCTION  -nan(ind)     0.00   746.50     0  00:00        0.00
  13203                JUNCTION  -nan(ind)     0.00   753.80     0  00:00        0.00
  13205                JUNCTION  -nan(ind)     0.00   770.50     0  00:00        0.00
  13206                JUNCTION  -nan(ind)     0.00   766.06     0  00:00        0.00
  13207                JUNCTION  -nan(ind)     0.00   754.09     0  00:00        0.00
  13208                JUNCTION  -nan(ind)     0.00   756.97     0  00:00        0.00
  13209                JUNCTION  -nan(ind)     0.00   722.96     0  00:00        0.00
  13210                JUNCTION  -nan(ind)     0.00   701.44     0  00:00        0.00
  13211                JUNCTION  -nan(ind)     0.00   688.60     0  00:00        0.00
  13212                JUNCTION  -nan(ind)     0.00   700.20     0  00:00        0.00
  13213                JUNCTION  -nan(ind)     0.00   698.20     0  00:00        0.00
  13214                JUNCTION  -nan(ind)     0.00   696.10     0  00:00        0.00
  13215                JUNCTION  -nan(ind)     0.00   734.40     0  00:00        0.00
  13216                JUNCTION  -nan(ind)     0.00   710.00     0  00:00        0.00
  13217                JUNCTION  -nan(ind)     0.00   705.30     0  00:00        0.00
  13218                JUNCTION  -nan(ind)     0.00   681.63     0  00:00        0.00
  13219                JUNCTION  -nan(ind)     0.00   679.72     0  00:00        0.00
  13220                JUNCTION  -nan(ind)     0.00   669.70     0  00:00        0.00
  13221                JUNCTION  -nan(ind)     0.00   684.90     0  00:00        0.00
  13223                JUNCTION  -nan(ind)     0.00   683.80     0  00:00        0.00
  13224                JUNCTION  -nan(ind)     0.00   680.73     0  00:00        0.00
  13225                JUNCTION  -nan(ind)     0.00   675.43     0  00:00        0.00
  13227                JUNCTION  -nan(ind)     0.00   663.06     0  00:00        0.00
  13228                JUNCTION  -nan(ind)     0.00   647.42     0  00:00        0.00
  13229                JUNCTION  -nan(ind)     0.00   645.62     0  00:00        0.00
  13246                JUNCTION  -nan(ind)     0.00   641.57     0  00:00        0.00
  13247                JUNCTION  -nan(ind)     0.00   651.66     0  00:00        0.00
  13248                JUNCTION  -nan(ind)     0.00   658.13     0  00:00        0.00
  13249                JUNCTION  -nan(ind)     0.00   672.07     0  00:00        0.00
  13250                JUNCTION  -nan(ind)     0.00   668.74     0  00:00        0.00
  13281                JUNCTION  -nan(ind)     0.00   677.40     0  00:00        0.00
  13282                JUNCTION  -nan(ind)     0.00   674.53     0  00:00        0.00
  13283                JUNCTION  -nan(ind)     0.00   670.74     0  00:00        0.00
  13284                JUNCTION  -nan(ind)     0.00   669.80     0  00:00        0.00
  13285                JUNCTION  -nan(ind)     0.00   678.82     0  00:00        0.00
  13286                JUNCTION  -nan(ind)     0.00   676.22     0  00:00        0.00
  13287                JUNCTION  -nan(ind)     0.00   696.03     0  00:00        0.00
  13288                JUNCTION  -nan(ind)     0.00   692.33     0  00:00        0.00
  13289                JUNCTION  -nan(ind)     0.00   660.34     0  00:00        0.00
  13290                JUNCTION  -nan(ind)     0.00   665.70     0  00:00        0.00
  13291                JUNCTION  -nan(ind)     0.00   663.60     0  00:00        0.00
  13292                JUNCTION  -nan(ind)     0.00   655.90     0  00:00        0.00
  13294                JUNCTION  -nan(ind)     0.00   653.80     0  00:00        0.00
  13295                JUNCTION  -nan(ind)     0.00   650.10     0  00:00        0.00
  13296                JUNCTION  -nan(ind)     0.00   646.90     0  00:00        0.00
  13297                JUNCTION  -nan(ind)     0.00   643.10     0  00:00        0.00
  13298                JUNCTION  -nan(ind)     0.00   639.70     0  00:00        0.00
  13299                JUNCTION  -nan(ind)     0.00   636.30     0  00:00        0.00
  13300                JUNCTION  -nan(ind)     0.00   694.18     0  00:00        0.00
  13301                JUNCTION  -nan(ind)     0.00   676.12     0  00:00        0.00
  13304                JUNCTION  -nan(ind)     0.00   666.77     0  00:00        0.00
  13305                JUNCTION  -nan(ind)     0.00   669.55     0  00:00        0.00
  13306                JUNCTION  -nan(ind)     0.00   670.45     0  00:00        0.00
  13307                JUNCTION  -nan(ind)     0.00   672.13     0  00:00        0.00
  13308                JUNCTION  -nan(ind)     0.00   705.08     0  00:00        0.00
  13309                JUNCTION  -nan(ind)     0.00   701.57     0  00:00        0.00
  13310                JUNCTION  -nan(ind)     0.00   707.29     0  00:00        0.00
  13311                JUNCTION  -nan(ind)     0.00   708.73     0  00:00        0.00
  13312                JUNCTION  -nan(ind)     0.00   721.40     0  00:00        0.00
  13313                JUNCTION  -nan(ind)     0.00   696.20     0  00:00        0.00
  13314                JUNCTION  -nan(ind)     0.00   684.34     0  00:00        0.00
  13315                JUNCTION  -nan(ind)     0.00   675.30     0  00:00        0.00
  13316                JUNCTION  -nan(ind)     0.00   666.43     0  00:00        0.00
  13317                JUNCTION  -nan(ind)     0.00   663.26     0  00:00        0.00
  13318                JUNCTION  -nan(ind)     0.00   722.30     0  00:00        0.00
  13319                JUNCTION  -nan(ind)     0.00   717.53     0  00:00        0.00
  13320                JUNCTION  -nan(ind)     0.00   711.92     0  00:00        0.00
  13321                JUNCTION  -nan(ind)     0.00   692.71     0  00:00        0.00
  13322                JUNCTION  -nan(ind)     0.00   688.18     0  00:00        0.00
  13323                JUNCTION  -nan(ind)     0.00   685.54     0  00:00        0.00
  13324                JUNCTION  -nan(ind)     0.00   674.41     0  00:00        0.00
  13325                JUNCTION  -nan(ind)     0.00   716.04     0  00:00        0.00
  13326                JUNCTION  -nan(ind)     0.00   684.64     0  00:00        0.00
  13327                JUNCTION  -nan(ind)     0.00   675.63     0  00:00        0.00
  13328                JUNCTION  -nan(ind)     0.00   664.60     0  00:00        0.00
  13329                JUNCTION  -nan(ind)     0.00   701.75     0  00:00        0.00
  13330                JUNCTION  -nan(ind)     0.00   714.56     0  00:00        0.00
  13331                JUNCTION  -nan(ind)     0.00   654.98     0  00:00        0.00
  13332                JUNCTION  -nan(ind)     0.00   641.01     0  00:00        0.00
  13333                JUNCTION  -nan(ind)     0.00   638.39     0  00:00        0.00
  13334                JUNCTION  -nan(ind)     0.00   631.79     0  00:00        0.00
  13335                JUNCTION  -nan(ind)     0.00   643.80     0  00:00        0.00
  13336                JUNCTION  -nan(ind)     0.00   700.39     0  00:00        0.00
  13337                JUNCTION  -nan(ind)     0.00   659.70     0  00:00        0.00
  13338                JUNCTION  -nan(ind)     0.00   656.65     0  00:00        0.00
  13339                JUNCTION  -nan(ind)     0.00   690.92     0  00:00        0.00
  13340                JUNCTION  -nan(ind)     0.00   647.62     0  00:00        0.00
  13342                JUNCTION  -nan(ind)     0.00   628.64     0  00:00        0.00
  13343                JUNCTION  -nan(ind)     0.00   617.83     0  00:00        0.00
  13344                JUNCTION  -nan(ind)     0.00   607.01     0  00:00        0.00
  13345                JUNCTION  -nan(ind)     0.00   601.75     0  00:00        0.00
  13346                JUNCTION  -nan(ind)     0.00   621.98     0  00:00        0.00
  13347                JUNCTION  -nan(ind)     0.00   593.54     0  00:00        0.00
  13348                JUNCTION  -nan(ind)     0.00   606.83     0  00:00        0.00
  13349                JUNCTION  -nan(ind)     0.00   634.78     0  00:00        0.00
  13350                JUNCTION  -nan(ind)     0.00   641.93     0  00:00        0.00
  13351                JUNCTION  -nan(ind)     0.00   644.49     0  00:00        0.00
  13352                JUNCTION  -nan(ind)     0.00   630.49     0  00:00        0.00
  13353                JUNCTION  -nan(ind)     0.00   610.38     0  00:00        0.00
  13354                JUNCTION  -nan(ind)     0.00   591.96     0  00:00        0.00
  13355                JUNCTION  -nan(ind)     0.00   598.25     0  00:00        0.00
  13357                JUNCTION  -nan(ind)     0.00   568.90     0  00:00        0.00
  13358                JUNCTION  -nan(ind)     0.00   635.67     0  00:00        0.00
  13359                JUNCTION  -nan(ind)     0.00   628.96     0  00:00        0.00
  13360                JUNCTION  -nan(ind)     0.00   633.21     0  00:00        0.00
  13361                JUNCTION  -nan(ind)     0.00   624.87     0  00:00        0.00
  13363                JUNCTION  -nan(ind)     0.00   609.77     0  00:00        0.00
  13367                JUNCTION  -nan(ind)     0.00   578.52     0  00:00        0.00
  13369                JUNCTION  -nan(ind)     0.00   601.38     0  00:00        0.00
  13370                JUNCTION  -nan(ind)     0.00   617.29     0  00:00        0.00
  13371                JUNCTION  -nan(ind)     0.00   636.75     0  00:00        0.00
  13372                JUNCTION  -nan(ind)     0.00   590.48     0  00:00        0.00
  13373                JUNCTION  -nan(ind)     0.00   601.82     0  00:00        0.00
  13374                JUNCTION  -nan(ind)     0.00   620.07     0  00:00        0.00
  13375                JUNCTION  -nan(ind)     0.00   634.33     0  00:00        0.00
  13376                JUNCTION  -nan(ind)     0.00   637.66     0  00:00        0.00
  13377                JUNCTION  -nan(ind)     0.00   640.01     0  00:00        0.00
  13378                JUNCTION  -nan(ind)     0.00   642.00     0  00:00        0.00
  13379                JUNCTION  -nan(ind)     0.00   648.92     0  00:00        0.00
  13380                JUNCTION  -nan(ind)     0.00   655.12     0  00:00        0.00
  13382                JUNCTION  -nan(ind)     0.00   642.55     0  00:00        0.00
  13383                JUNCTION  -nan(ind)     0.00   654.00     0  00:00        0.00
  13384                JUNCTION  -nan(ind)     0.00   648.65     0  00:00        0.00
  13385                JUNCTION  -nan(ind)     0.00   563.90     0  00:00        0.00
  13386                JUNCTION  -nan(ind)     0.00   429.65     0  00:00        0.00
  13387                JUNCTION  -nan(ind)     0.00   432.86     0  00:00        0.00
  13388                JUNCTION  -nan(ind)     0.00   456.22     0  00:00        0.00
  13389                JUNCTION  -nan(ind)     0.00   454.04     0  00:00        0.00
  13391                JUNCTION  -nan(ind)     0.00   521.41     0  00:00        0.00
  13392                JUNCTION  -nan(ind)     0.00   549.62     0  00:00        0.00
  13393                JUNCTION  -nan(ind)     0.00   562.66     0  00:00        0.00
  13394                JUNCTION  -nan(ind)     0.00   522.45     0  00:00        0.00
  13395                JUNCTION  -nan(ind)     0.00   527.29     0  00:00        0.00
  13396                JUNCTION  -nan(ind)     0.00   536.00     0  00:00        0.00
  13397                JUNCTION  -nan(ind)     0.00   529.24     0  00:00        0.00
  13398                JUNCTION  -nan(ind)     0.00   513.85     0  00:00        0.00
  13399                JUNCTION  -nan(ind)     0.00   504.71     0  00:00        0.00
  13400                JUNCTION  -nan(ind)     0.00   507.99     0  00:00        0.00
  13401                JUNCTION  -nan(ind)     0.00   503.24     0  00:00        0.00
  13402                JUNCTION  -nan(ind)     0.00   519.58     0  00:00        0.00
  13403                JUNCTION  -nan(ind)     0.00   524.00     0  00:00        0.00
  13404                JUNCTION  -nan(ind)     0.00   535.13     0  00:00        0.00
  13405                JUNCTION  -nan(ind)     0.00   521.87     0  00:00        0.00
  13406                JUNCTION  -nan(ind)     0.00   510.22     0  00:00        0.00
  13409                JUNCTION  -nan(ind)     0.00   509.21     0  00:00        0.00
  13410                JUNCTION  -nan(ind)     0.00   516.53     0  00:00        0.00
  13411                JUNCTION  -nan(ind)     0.00   523.20     0  00:00        0.00
  13412                JUNCTION  -nan(ind)     0.00   529.11     0  00:00        0.00
  13413                JUNCTION  -nan(ind)     0.00   535.61     0  00:00        0.00
  13414                JUNCTION  -nan(ind)     0.00   539.10     0  00:00        0.00
  13415                JUNCTION  -nan(ind)     0.00   539.43     0  00:00        0.00
  13416                JUNCTION  -nan(ind)     0.00   475.50     0  00:00        0.00
  13417                JUNCTION  -nan(ind)     0.00   477.53     0  00:00        0.00
  13418                JUNCTION  -nan(ind)     0.00   482.47     0  00:00        0.00
  13419                JUNCTION  -nan(ind)     0.00   495.03     0  00:00        0.00
  13420                JUNCTION  -nan(ind)     0.00   496.24     0  00:00        0.00
  13421                JUNCTION  -nan(ind)     0.00   496.17     0  00:00        0.00
  13422                JUNCTION  -nan(ind)     0.00   500.04     0  00:00        0.00
  13423                JUNCTION  -nan(ind)     0.00   489.50     0  00:00        0.00
  13424                JUNCTION  -nan(ind)     0.00   485.86     0  00:00        0.00
  13425                JUNCTION  -nan(ind)     0.00   485.50     0  00:00        0.00
  13426                JUNCTION  -nan(ind)     0.00   482.01     0  00:00        0.00
  13427                JUNCTION  -nan(ind)     0.00   482.41     0  00:00        0.00
  13428                JUNCTION  -nan(ind)     0.00   486.84     0  00:00        0.00
  13429                JUNCTION  -nan(ind)     0.00   491.46     0  00:00        0.00
  13430                JUNCTION  -nan(ind)     0.00   488.96     0  00:00        0.00
  13431                JUNCTION  -nan(ind)     0.00   495.14     0  00:00        0.00
  13432                JUNCTION  -nan(ind)     0.00   508.50     0  00:00        0.00
  13433                JUNCTION  -nan(ind)     0.00   502.00     0  00:00        0.00
  13434                JUNCTION  -nan(ind)     0.00   535.50     0  00:00        0.00
  13435                JUNCTION  -nan(ind)     0.00   529.06     0  00:00        0.00
  13436                JUNCTION  -nan(ind)     0.00   542.31     0  00:00        0.00
  13437                JUNCTION  -nan(ind)     0.00   494.60     0  00:00        0.00
  13438                JUNCTION  -nan(ind)     0.00   502.68     0  00:00        0.00
  13439                JUNCTION  -nan(ind)     0.00   514.48     0  00:00        0.00
  13440                JUNCTION  -nan(ind)     0.00   522.60     0  00:00        0.00
  13441                JUNCTION  -nan(ind)     0.00   527.40     0  00:00        0.00
  13442                JUNCTION  -nan(ind)     0.00   529.75     0  00:00        0.00
  13443                JUNCTION  -nan(ind)     0.00   531.96     0  00:00        0.00
  13444                JUNCTION  -nan(ind)     0.00   500.80     0  00:00        0.00
  13445                JUNCTION  -nan(ind)     0.00   509.08     0  00:00        0.00
  13446                JUNCTION  -nan(ind)     0.00   516.74     0  00:00        0.00
  13447                JUNCTION  -nan(ind)     0.00   499.71     0  00:00        0.00
  13448                JUNCTION  -nan(ind)     0.00   488.03     0  00:00        0.00
  13449                JUNCTION  -nan(ind)     0.00   524.55     0  00:00        0.00
  13450                JUNCTION  -nan(ind)     0.00   515.73     0  00:00        0.00
  13451                JUNCTION  -nan(ind)     0.00   505.37     0  00:00        0.00
  13452                JUNCTION  -nan(ind)     0.00   499.29     0  00:00        0.00
  13453                JUNCTION  -nan(ind)     0.00   482.13     0  00:00        0.00
  13454                JUNCTION  -nan(ind)     0.00   480.63     0  00:00        0.00
  13455                JUNCTION  -nan(ind)     0.00   478.96     0  00:00        0.00
  13456                JUNCTION  -nan(ind)     0.00   518.63     0  00:00        0.00
  13457                JUNCTION  -nan(ind)     0.00   546.41     0  00:00        0.00
  13458                JUNCTION  -nan(ind)     0.00   559.74     0  00:00        0.00
  13459                JUNCTION  -nan(ind)     0.00   566.20     0  00:00        0.00
  13460                JUNCTION  -nan(ind)     0.00   566.90     0  00:00        0.00
  13462                JUNCTION  -nan(ind)     0.00   554.19     0  00:00        0.00
  13463                JUNCTION  -nan(ind)     0.00   543.27     0  00:00        0.00
  13464                JUNCTION  -nan(ind)     0.00   530.60     0  00:00        0.00
  13465                JUNCTION  -nan(ind)     0.00   542.00     0  00:00        0.00
  13466                JUNCTION  -nan(ind)     0.00   535.70     0  00:00        0.00
  13467                JUNCTION  -nan(ind)     0.00   550.50     0  00:00        0.00
  13468                JUNCTION  -nan(ind)     0.00   546.85     0  00:00        0.00
  13469                JUNCTION  -nan(ind)     0.00   565.20     0  00:00        0.00
  13470                JUNCTION  -nan(ind)     0.00   574.02     0  00:00        0.00
  13471                JUNCTION  -nan(ind)     0.00   569.88     0  00:00        0.00
  13472                JUNCTION  -nan(ind)     0.00   576.75     0  00:00        0.00
  13473                JUNCTION  -nan(ind)     0.00   575.67     0  00:00        0.00
  13474                JUNCTION  -nan(ind)     0.00   578.71     0  00:00        0.00
  13475                JUNCTION  -nan(ind)     0.00   580.22     0  00:00        0.00
  13476                JUNCTION  -nan(ind)     0.00   580.79     0  00:00        0.00
  13477                JUNCTION  -nan(ind)     0.00   586.50     0  00:00        0.00
  13478                JUNCTION  -nan(ind)     0.00   581.10     0  00:00        0.00
  13479                JUNCTION  -nan(ind)     0.00   580.60     0  00:00        0.00
  13480                JUNCTION  -nan(ind)     0.00   583.45     0  00:00        0.00
  13481                JUNCTION  -nan(ind)     0.00   586.24     0  00:00        0.00
  13482                JUNCTION  -nan(ind)     0.00   589.65     0  00:00        0.00
  13483                JUNCTION  -nan(ind)     0.00   591.98     0  00:00        0.00
  13484                JUNCTION  -nan(ind)     0.00   587.25     0  00:00        0.00
  13485                JUNCTION  -nan(ind)     0.00   589.64     0  00:00        0.00
  13486                JUNCTION  -nan(ind)     0.00   584.40     0  00:00        0.00
  13487                JUNCTION  -nan(ind)     0.00   586.79     0  00:00        0.00
  13488                JUNCTION  -nan(ind)     0.00   581.09     0  00:00        0.00
  13489                JUNCTION  -nan(ind)     0.00   552.48     0  00:00        0.00
  13490                JUNCTION  -nan(ind)     0.00   548.56     0  00:00        0.00
  13492                JUNCTION  -nan(ind)     0.00   559.57     0  00:00        0.00
  13493                JUNCTION  -nan(ind)     0.00   555.38     0  00:00        0.00
  13494                JUNCTION  -nan(ind)     0.00   566.81     0  00:00        0.00
  13495                JUNCTION  -nan(ind)     0.00   575.06     0  00:00        0.00
  13496                JUNCTION  -nan(ind)     0.00   567.25     0  00:00        0.00
  13498                JUNCTION  -nan(ind)     0.00   575.51     0  00:00        0.00
  13499                JUNCTION  -nan(ind)     0.00   558.44     0  00:00        0.00
  13500                JUNCTION  -nan(ind)     0.00   559.39     0  00:00        0.00
  13501                JUNCTION  -nan(ind)     0.00   551.36     0  00:00        0.00
  13502                JUNCTION  -nan(ind)     0.00   551.78     0  00:00        0.00
  13503                JUNCTION  -nan(ind)     0.00   554.67     0  00:00        0.00
  13504                JUNCTION  -nan(ind)     0.00   555.09     0  00:00        0.00
  13505                JUNCTION  -nan(ind)     0.00   557.98     0  00:00        0.00
  13506                JUNCTION  -nan(ind)     0.00   563.56     0  00:00        0.00
  13507                JUNCTION  -nan(ind)     0.00   564.18     0  00:00        0.00
  13508                JUNCTION  -nan(ind)     0.00   545.88     0  00:00        0.00
  13509                JUNCTION  -nan(ind)     0.00   532.00     0  00:00        0.00
  13510                JUNCTION  -nan(ind)     0.00   534.50     0  00:00        0.00
  13511                JUNCTION  -nan(ind)     0.00   536.86     0  00:00        0.00
  13512                JUNCTION  -nan(ind)     0.00   539.00     0  00:00        0.00
  13513                JUNCTION  -nan(ind)     0.00   549.16     0  00:00        0.00
  13514                JUNCTION  -nan(ind)     0.00   551.11     0  00:00        0.00
  13515                JUNCTION  -nan(ind)     0.00   539.86     0  00:00        0.00
  13516                JUNCTION  -nan(ind)     0.00   553.82     0  00:00        0.00
  13517                JUNCTION  -nan(ind)     0.00   536.10     0  00:00        0.00
  13518                JUNCTION  -nan(ind)     0.00   537.10     0  00:00        0.00
  13519                JUNCTION  -nan(ind)     0.00   552.44     0  00:00        0.00
[...]
  7682.1                  1.00   -nan(ind)  -nan(ind)  -nan(ind)  -nan(ind)  -nan(ind)  -nan(ind)  -nan(ind)  -nan(ind)  -nan(ind)
  7683.1                  1.00   -nan(ind)  -nan(ind)  -nan(ind)  -nan(ind)  -nan(ind)  -nan(ind)  -nan(ind)  -nan(ind)  -nan(ind)
  7683.2                  1.00   -nan(ind)  -nan(ind)  -nan(ind)  -nan(ind)  -nan(ind)  -nan(ind)  -nan(ind)  -nan(ind)  -nan(ind)
  7684.1                  1.00   -nan(ind)  -nan(ind)  -nan(ind)  -nan(ind)  -nan(ind)  -nan(ind)  -nan(ind)  -nan(ind)  -nan(ind)
  7685.1                  1.00   -nan(ind)  -nan(ind)  -nan(ind)  -nan(ind)  -nan(ind)  -nan(ind)  -nan(ind)  -nan(ind)  -nan(ind)
  7686.1                  1.00   -nan(ind)  -nan(ind)  -nan(ind)  -nan(ind)  -nan(ind)  -nan(ind)  -nan(ind)  -nan(ind)  -nan(ind)
  7687.1                  2.77   -nan(ind)  -nan(ind)  -nan(ind)  -nan(ind)  -nan(ind)  -nan(ind)  -nan(ind)  -nan(ind)  -nan(ind)
  7688.1                  1.00   -nan(ind)  -nan(ind)  -nan(ind)  -nan(ind)  -nan(ind)  -nan(ind)  -nan(ind)  -nan(ind)  -nan(ind)
  7689.1                  1.00   -nan(ind)  -nan(ind)  -nan(ind)  -nan(ind)  -nan(ind)  -nan(ind)  -nan(ind)  -nan(ind)  -nan(ind)
  7690.1                  1.00   -nan(ind)  -nan(ind)  -nan(ind)  -nan(ind)  -nan(ind)  -nan(ind)  -nan(ind)  -nan(ind)  -nan(ind)
  7691.1                  1.00   -nan(ind)  -nan(ind)  -nan(ind)  -nan(ind)  -nan(ind)  -nan(ind)  -nan(ind)  -nan(ind)  -nan(ind)
  7691.2                  1.00   -nan(ind)  -nan(ind)  -nan(ind)  -nan(ind)  -nan(ind)  -nan(ind)  -nan(ind)  -nan(ind)  -nan(ind)
  7692.1                  1.00   -nan(ind)  -nan(ind)  -nan(ind)  -nan(ind)  -nan(ind)  -nan(ind)  -nan(ind)  -nan(ind)  -nan(ind)
  7693.1                  1.00   -nan(ind)  -nan(ind)  -nan(ind)  -nan(ind)  -nan(ind)  -nan(ind)  -nan(ind)  -nan(ind)  -nan(ind)
  7694.1                  1.00   -nan(ind)  -nan(ind)  -nan(ind)  -nan(ind)  -nan(ind)  -nan(ind)  -nan(ind)  -nan(ind)  -nan(ind)
  7695.1                  1.00   -nan(ind)  -nan(ind)  -nan(ind)  -nan(ind)  -nan(ind)  -nan(ind)  -nan(ind)  -nan(ind)  -nan(ind)
  7696.1                  1.36   -nan(ind)  -nan(ind)  -nan(ind)  -nan(ind)  -nan(ind)  -nan(ind)  -nan(ind)  -nan(ind)  -nan(ind)
  7697.1                  2.86   -nan(ind)  -nan(ind)  -nan(ind)  -nan(ind)  -nan(ind)  -nan(ind)  -nan(ind)  -nan(ind)  -nan(ind)
  7698.1                  1.00   -nan(ind)  -nan(ind)  -nan(ind)  -nan(ind)  -nan(ind)  -nan(ind)  -nan(ind)  -nan(ind)  -nan(ind)
  7698.2                  1.00   -nan(ind)  -nan(ind)  -nan(ind)  -nan(ind)  -nan(ind)  -nan(ind)  -nan(ind)  -nan(ind)  -nan(ind)
  7699.1                  1.08   -nan(ind)  -nan(ind)  -nan(ind)  -nan(ind)  -nan(ind)  -nan(ind)  -nan(ind)  -nan(ind)  -nan(ind)
  7700.1                  1.00   -nan(ind)  -nan(ind)  -nan(ind)  -nan(ind)  -nan(ind)  -nan(ind)  -nan(ind)  -nan(ind)  -nan(ind)
  7701.1                  1.22   -nan(ind)  -nan(ind)  -nan(ind)  -nan(ind)  -nan(ind)  -nan(ind)  -nan(ind)  -nan(ind)  -nan(ind)
  7702.1                  2.20   -nan(ind)  -nan(ind)  -nan(ind)  -nan(ind)  -nan(ind)  -nan(ind)  -nan(ind)  -nan(ind)  -nan(ind)
  7703.1                  1.00   -nan(ind)  -nan(ind)  -nan(ind)  -nan(ind)  -nan(ind)  -nan(ind)  -nan(ind)  -nan(ind)  -nan(ind)
  7704.1                  1.00   -nan(ind)  -nan(ind)  -nan(ind)  -nan(ind)  -nan(ind)  -nan(ind)  -nan(ind)  -nan(ind)  -nan(ind)
  7705.1                  2.79   -nan(ind)  -nan(ind)  -nan(ind)  -nan(ind)  -nan(ind)  -nan(ind)  -nan(ind)  -nan(ind)  -nan(ind)
  7706.1                  1.00   -nan(ind)  -nan(ind)  -nan(ind)  -nan(ind)  -nan(ind)  -nan(ind)  -nan(ind)  -nan(ind)  -nan(ind)
  7707.1                  1.00   -nan(ind)  -nan(ind)  -nan(ind)  -nan(ind)  -nan(ind)  -nan(ind)  -nan(ind)  -nan(ind)  -nan(ind)
  7708.1                  1.00   -nan(ind)  -nan(ind)  -nan(ind)  -nan(ind)  -nan(ind)  -nan(ind)  -nan(ind)  -nan(ind)  -nan(ind)
  7709.1                  1.00   -nan(ind)  -nan(ind)  -nan(ind)  -nan(ind)  -nan(ind)  -nan(ind)  -nan(ind)  -nan(ind)  -nan(ind)
  7710.1                  1.00   -nan(ind)  -nan(ind)  -nan(ind)  -nan(ind)  -nan(ind)  -nan(ind)  -nan(ind)  -nan(ind)  -nan(ind)
  7711.1                  1.00   -nan(ind)  -nan(ind)  -nan(ind)  -nan(ind)  -nan(ind)  -nan(ind)  -nan(ind)  -nan(ind)  -nan(ind)
  7712.1                  1.00   -nan(ind)  -nan(ind)  -nan(ind)  -nan(ind)  -nan(ind)  -nan(ind)  -nan(ind)  -nan(ind)  -nan(ind)
  7713.1                  1.00   -nan(ind)  -nan(ind)  -nan(ind)  -nan(ind)  -nan(ind)  -nan(ind)  -nan(ind)  -nan(ind)  -nan(ind)
  7714.1                  1.04   -nan(ind)  -nan(ind)  -nan(ind)  -nan(ind)  -nan(ind)  -nan(ind)  -nan(ind)  -nan(ind)  -nan(ind)
  7715.1                  1.00   -nan(ind)  -nan(ind)  -nan(ind)  -nan(ind)  -nan(ind)  -nan(ind)  -nan(ind)  -nan(ind)  -nan(ind)
  7716.1                  1.00   -nan(ind)  -nan(ind)  -nan(ind)  -nan(ind)  -nan(ind)  -nan(ind)  -nan(ind)  -nan(ind)  -nan(ind)
  7717.1                  1.00   -nan(ind)  -nan(ind)  -nan(ind)  -nan(ind)  -nan(ind)  -nan(ind)  -nan(ind)  -nan(ind)  -nan(ind)
  7718.1                  1.36   -nan(ind)  -nan(ind)  -nan(ind)  -nan(ind)  -nan(ind)  -nan(ind)  -nan(ind)  -nan(ind)  -nan(ind)
  7719.1                  1.00   -nan(ind)  -nan(ind)  -nan(ind)  -nan(ind)  -nan(ind)  -nan(ind)  -nan(ind)  -nan(ind)  -nan(ind)
  7720.1                  1.00   -nan(ind)  -nan(ind)  -nan(ind)  -nan(ind)  -nan(ind)  -nan(ind)  -nan(ind)  -nan(ind)  -nan(ind)
  7721.1                  1.00   -nan(ind)  -nan(ind)  -nan(ind)  -nan(ind)  -nan(ind)  -nan(ind)  -nan(ind)  -nan(ind)  -nan(ind)
  7722.1                  1.00   -nan(ind)  -nan(ind)  -nan(ind)  -nan(ind)  -nan(ind)  -nan(ind)  -nan(ind)  -nan(ind)  -nan(ind)
  7723.1                  1.00   -nan(ind)  -nan(ind)  -nan(ind)  -nan(ind)  -nan(ind)  -nan(ind)  -nan(ind)  -nan(ind)  -nan(ind)
  7724.1                  1.00   -nan(ind)  -nan(ind)  -nan(ind)  -nan(ind)  -nan(ind)  -nan(ind)  -nan(ind)  -nan(ind)  -nan(ind)
  7725.1                  1.00   -nan(ind)  -nan(ind)  -nan(ind)  -nan(ind)  -nan(ind)  -nan(ind)  -nan(ind)  -nan(ind)  -nan(ind)
  7726.1                  1.00   -nan(ind)  -nan(ind)  -nan(ind)  -nan(ind)  -nan(ind)  -nan(ind)  -nan(ind)  -nan(ind)  -nan(ind)
  7727.1                  1.00   -nan(ind)  -nan(ind)  -nan(ind)  -nan(ind)  -nan(ind)  -nan(ind)  -nan(ind)  -nan(ind)  -nan(ind)
  7728.1                  1.00   -nan(ind)  -nan(ind)  -nan(ind)  -nan(ind)  -nan(ind)  -nan(ind)  -nan(ind)  -nan(ind)  -nan(ind)
  7751.1                  1.00   -nan(ind)  -nan(ind)  -nan(ind)  -nan(ind)  -nan(ind)  -nan(ind)  -nan(ind)  -nan(ind)  -nan(ind)
  7752.1                  1.00   -nan(ind)  -nan(ind)  -nan(ind)  -nan(ind)  -nan(ind)  -nan(ind)  -nan(ind)  -nan(ind)  -nan(ind)
  7753.1                  1.00   -nan(ind)  -nan(ind)  -nan(ind)  -nan(ind)  -nan(ind)  -nan(ind)  -nan(ind)  -nan(ind)  -nan(ind)
  7754.1                  1.00   -nan(ind)  -nan(ind)  -nan(ind)  -nan(ind)  -nan(ind)  -nan(ind)  -nan(ind)  -nan(ind)  -nan(ind)
  8850.1                  1.00   -nan(ind)  -nan(ind)  -nan(ind)  -nan(ind)  -nan(ind)  -nan(ind)  -nan(ind)  -nan(ind)  -nan(ind)
  8853.1                  1.50   -nan(ind)  -nan(ind)  -nan(ind)  -nan(ind)  -nan(ind)  -nan(ind)  -nan(ind)  -nan(ind)  -nan(ind)
  8855.1                  1.00   -nan(ind)  -nan(ind)  -nan(ind)  -nan(ind)  -nan(ind)  -nan(ind)  -nan(ind)  -nan(ind)  -nan(ind)
  8857.1                  1.00   -nan(ind)  -nan(ind)  -nan(ind)  -nan(ind)  -nan(ind)  -nan(ind)  -nan(ind)  -nan(ind)  -nan(ind)
  8860.1                  1.74   -nan(ind)  -nan(ind)  -nan(ind)  -nan(ind)  -nan(ind)  -nan(ind)  -nan(ind)  -nan(ind)  -nan(ind)
  8863.1                  1.22   -nan(ind)  -nan(ind)  -nan(ind)  -nan(ind)  -nan(ind)  -nan(ind)  -nan(ind)  -nan(ind)  -nan(ind)
  8864.1                  1.00   -nan(ind)  -nan(ind)  -nan(ind)  -nan(ind)  -nan(ind)  -nan(ind)  -nan(ind)  -nan(ind)  -nan(ind)
  8877.1                  1.00   -nan(ind)  -nan(ind)  -nan(ind)  -nan(ind)  -nan(ind)  -nan(ind)  -nan(ind)  -nan(ind)  -nan(ind)
  8878.1                  1.00   -nan(ind)  -nan(ind)  -nan(ind)  -nan(ind)  -nan(ind)  -nan(ind)  -nan(ind)  -nan(ind)  -nan(ind)
  8881.1                  1.00   -nan(ind)  -nan(ind)  -nan(ind)  -nan(ind)  -nan(ind)  -nan(ind)  -nan(ind)  -nan(ind)  -nan(ind)
  8881.2                  1.00   -nan(ind)  -nan(ind)  -nan(ind)  -nan(ind)  -nan(ind)  -nan(ind)  -nan(ind)  -nan(ind)  -nan(ind)
  8882.1                  1.00   -nan(ind)  -nan(ind)  -nan(ind)  -nan(ind)  -nan(ind)  -nan(ind)  -nan(ind)  -nan(ind)  -nan(ind)
  8883.1                  1.67   -nan(ind)  -nan(ind)  -nan(ind)  -nan(ind)  -nan(ind)  -nan(ind)  -nan(ind)  -nan(ind)  -nan(ind)
  8884.1                  1.00   -nan(ind)  -nan(ind)  -nan(ind)  -nan(ind)  -nan(ind)  -nan(ind)  -nan(ind)  -nan(ind)  -nan(ind)
  8885.1                  1.00   -nan(ind)  -nan(ind)  -nan(ind)  -nan(ind)  -nan(ind)  -nan(ind)  -nan(ind)  -nan(ind)  -nan(ind)
  8886.1                  1.00   -nan(ind)  -nan(ind)  -nan(ind)  -nan(ind)  -nan(ind)  -nan(ind)  -nan(ind)  -nan(ind)  -nan(ind)
  8887.1                  1.00   -nan(ind)  -nan(ind)  -nan(ind)  -nan(ind)  -nan(ind)  -nan(ind)  -nan(ind)  -nan(ind)  -nan(ind)
  8888.1                  1.00   -nan(ind)  -nan(ind)  -nan(ind)  -nan(ind)  -nan(ind)  -nan(ind)  -nan(ind)  -nan(ind)  -nan(ind)
  8890.1                  1.00   -nan(ind)  -nan(ind)  -nan(ind)  -nan(ind)  -nan(ind)  -nan(ind)  -nan(ind)  -nan(ind)  -nan(ind)
  8891.1                  1.00   -nan(ind)  -nan(ind)  -nan(ind)  -nan(ind)  -nan(ind)  -nan(ind)  -nan(ind)  -nan(ind)  -nan(ind)
  8893.1                  1.00   -nan(ind)  -nan(ind)  -nan(ind)  -nan(ind)  -nan(ind)  -nan(ind)  -nan(ind)  -nan(ind)  -nan(ind)
  8894.1                  1.00   -nan(ind)  -nan(ind)  -nan(ind)  -nan(ind)  -nan(ind)  -nan(ind)  -nan(ind)  -nan(ind)  -nan(ind)
  8895.1                  1.00   -nan(ind)  -nan(ind)  -nan(ind)  -nan(ind)  -nan(ind)  -nan(ind)  -nan(ind)  -nan(ind)  -nan(ind)
  8897.1                  1.00   -nan(ind)  -nan(ind)  -nan(ind)  -nan(ind)  -nan(ind)  -nan(ind)  -nan(ind)  -nan(ind)  -nan(ind)
  8899.1                  1.00   -nan(ind)  -nan(ind)  -nan(ind)  -nan(ind)  -nan(ind)  -nan(ind)  -nan(ind)  -nan(ind)  -nan(ind)
  8900.1                  1.00   -nan(ind)  -nan(ind)  -nan(ind)  -nan(ind)  -nan(ind)  -nan(ind)  -nan(ind)  -nan(ind)  -nan(ind)
  8901.1                  1.00   -nan(ind)  -nan(ind)  -nan(ind)  -nan(ind)  -nan(ind)  -nan(ind)  -nan(ind)  -nan(ind)  -nan(ind)
  8902.1                  1.00   -nan(ind)  -nan(ind)  -nan(ind)  -nan(ind)  -nan(ind)  -nan(ind)  -nan(ind)  -nan(ind)  -nan(ind)
  8903.1                  1.00   -nan(ind)  -nan(ind)  -nan(ind)  -nan(ind)  -nan(ind)  -nan(ind)  -nan(ind)  -nan(ind)  -nan(ind)
  8905.1                  1.00   -nan(ind)  -nan(ind)  -nan(ind)  -nan(ind)  -nan(ind)  -nan(ind)  -nan(ind)  -nan(ind)  -nan(ind)
  8907.1                  1.00   -nan(ind)  -nan(ind)  -nan(ind)  -nan(ind)  -nan(ind)  -nan(ind)  -nan(ind)  -nan(ind)  -nan(ind)
  8908.1                  1.00   -nan(ind)  -nan(ind)  -nan(ind)  -nan(ind)  -nan(ind)  -nan(ind)  -nan(ind)  -nan(ind)  -nan(ind)
  8909.1                  1.00   -nan(ind)  -nan(ind)  -nan(ind)  -nan(ind)  -nan(ind)  -nan(ind)  -nan(ind)  -nan(ind)  -nan(ind)
  8913.1                  1.35   -nan(ind)  -nan(ind)  -nan(ind)  -nan(ind)  -nan(ind)  -nan(ind)  -nan(ind)  -nan(ind)  -nan(ind)
  8914.1                  1.00   -nan(ind)  -nan(ind)  -nan(ind)  -nan(ind)  -nan(ind)  -nan(ind)  -nan(ind)  -nan(ind)  -nan(ind)
  8915.1                  1.00   -nan(ind)  -nan(ind)  -nan(ind)  -nan(ind)  -nan(ind)  -nan(ind)  -nan(ind)  -nan(ind)  -nan(ind)
  8916.1                  1.00   -nan(ind)  -nan(ind)  -nan(ind)  -nan(ind)  -nan(ind)  -nan(ind)  -nan(ind)  -nan(ind)  -nan(ind)
  8917.1                  1.00   -nan(ind)  -nan(ind)  -nan(ind)  -nan(ind)  -nan(ind)  -nan(ind)  -nan(ind)  -nan(ind)  -nan(ind)
  8919.1                  2.03   -nan(ind)  -nan(ind)  -nan(ind)  -nan(ind)  -nan(ind)  -nan(ind)  -nan(ind)  -nan(ind)  -nan(ind)
  8920.1                  1.00   -nan(ind)  -nan(ind)  -nan(ind)  -nan(ind)  -nan(ind)  -nan(ind)  -nan(ind)  -nan(ind)  -nan(ind)
  8921.1                  1.00   -nan(ind)  -nan(ind)  -nan(ind)  -nan(ind)  -nan(ind)  -nan(ind)  -nan(ind)  -nan(ind)  -nan(ind)
  8922.1                  1.00   -nan(ind)  -nan(ind)  -nan(ind)  -nan(ind)  -nan(ind)  -nan(ind)  -nan(ind)  -nan(ind)  -nan(ind)
  8923.1                  1.00   -nan(ind)  -nan(ind)  -nan(ind)  -nan(ind)  -nan(ind)  -nan(ind)  -nan(ind)  -nan(ind)  -nan(ind)
  8924.1                  1.00   -nan(ind)  -nan(ind)  -nan(ind)  -nan(ind)  -nan(ind)  -nan(ind)  -nan(ind)  -nan(ind)  -nan(ind)
  8925.1                  1.00   -nan(ind)  -nan(ind)  -nan(ind)  -nan(ind)  -nan(ind)  -nan(ind)  -nan(ind)  -nan(ind)  -nan(ind)
  8927.1                  2.41   -nan(ind)  -nan(ind)  -nan(ind)  -nan(ind)  -nan(ind)  -nan(ind)  -nan(ind)  -nan(ind)  -nan(ind)
  8928.1                  1.00   -nan(ind)  -nan(ind)  -nan(ind)  -nan(ind)  -nan(ind)  -nan(ind)  -nan(ind)  -nan(ind)  -nan(ind)
  8929.1                  1.00   -nan(ind)  -nan(ind)  -nan(ind)  -nan(ind)  -nan(ind)  -nan(ind)  -nan(ind)  -nan(ind)  -nan(ind)
  8933.1                  1.00   -nan(ind)  -nan(ind)  -nan(ind)  -nan(ind)  -nan(ind)  -nan(ind)  -nan(ind)  -nan(ind)  -nan(ind)
  8934.1                  1.32   -nan(ind)  -nan(ind)  -nan(ind)  -nan(ind)  -nan(ind)  -nan(ind)  -nan(ind)  -nan(ind)  -nan(ind)
  8936.1                 24.87   -nan(ind)  -nan(ind)  -nan(ind)  -nan(ind)  -nan(ind)  -nan(ind)  -nan(ind)  -nan(ind)  -nan(ind)
  8937.1                  1.00   -nan(ind)  -nan(ind)  -nan(ind)  -nan(ind)  -nan(ind)  -nan(ind)  -nan(ind)  -nan(ind)  -nan(ind)
  8938.1                  1.00   -nan(ind)  -nan(ind)  -nan(ind)  -nan(ind)  -nan(ind)  -nan(ind)  -nan(ind)  -nan(ind)  -nan(ind)
  8939.1                  1.00   -nan(ind)  -nan(ind)  -nan(ind)  -nan(ind)  -nan(ind)  -nan(ind)  -nan(ind)  -nan(ind)  -nan(ind)
  8940.1                  1.00   -nan(ind)  -nan(ind)  -nan(ind)  -nan(ind)  -nan(ind)  -nan(ind)  -nan(ind)  -nan(ind)  -nan(ind)
  8941.1                  1.00   -nan(ind)  -nan(ind)  -nan(ind)  -nan(ind)  -nan(ind)  -nan(ind)  -nan(ind)  -nan(ind)  -nan(ind)
  8942.1                  1.00   -nan(ind)  -nan(ind)  -nan(ind)  -nan(ind)  -nan(ind)  -nan(ind)  -nan(ind)  -nan(ind)  -nan(ind)
  8943.1                  1.08   -nan(ind)  -nan(ind)  -nan(ind)  -nan(ind)  -nan(ind)  -nan(ind)  -nan(ind)  -nan(ind)  -nan(ind)
  8947.1                  4.75   -nan(ind)  -nan(ind)  -nan(ind)  -nan(ind)  -nan(ind)  -nan(ind)  -nan(ind)  -nan(ind)  -nan(ind)
  8948.1                  2.17   -nan(ind)  -nan(ind)  -nan(ind)  -nan(ind)  -nan(ind)  -nan(ind)  -nan(ind)  -nan(ind)  -nan(ind)
  8949.1                  1.40   -nan(ind)  -nan(ind)  -nan(ind)  -nan(ind)  -nan(ind)  -nan(ind)  -nan(ind)  -nan(ind)  -nan(ind)
  8950.1                  1.00   -nan(ind)  -nan(ind)  -nan(ind)  -nan(ind)  -nan(ind)  -nan(ind)  -nan(ind)  -nan(ind)  -nan(ind)
  8951.1                  1.00   -nan(ind)  -nan(ind)  -nan(ind)  -nan(ind)  -nan(ind)  -nan(ind)  -nan(ind)  -nan(ind)  -nan(ind)
  8952.1                  1.00   -nan(ind)  -nan(ind)  -nan(ind)  -nan(ind)  -nan(ind)  -nan(ind)  -nan(ind)  -nan(ind)  -nan(ind)
  8953.1                  1.00   -nan(ind)  -nan(ind)  -nan(ind)  -nan(ind)  -nan(ind)  -nan(ind)  -nan(ind)  -nan(ind)  -nan(ind)
  8954.1                  2.73   -nan(ind)  -nan(ind)  -nan(ind)  -nan(ind)  -nan(ind)  -nan(ind)  -nan(ind)  -nan(ind)  -nan(ind)
  8955.1                  2.19   -nan(ind)  -nan(ind)  -nan(ind)  -nan(ind)  -nan(ind)  -nan(ind)  -nan(ind)  -nan(ind)  -nan(ind)
  8956.1                  3.75   -nan(ind)  -nan(ind)  -nan(ind)  -nan(ind)  -nan(ind)  -nan(ind)  -nan(ind)  -nan(ind)  -nan(ind)
  8957.1                  1.96   -nan(ind)  -nan(ind)  -nan(ind)  -nan(ind)  -nan(ind)  -nan(ind)  -nan(ind)  -nan(ind)  -nan(ind)
  8958.1                  1.44   -nan(ind)  -nan(ind)  -nan(ind)  -nan(ind)  -nan(ind)  -nan(ind)  -nan(ind)  -nan(ind)  -nan(ind)
  8959.1                  1.00   -nan(ind)  -nan(ind)  -nan(ind)  -nan(ind)  -nan(ind)  -nan(ind)  -nan(ind)  -nan(ind)  -nan(ind)
  8960.1                  1.43   -nan(ind)  -nan(ind)  -nan(ind)  -nan(ind)  -nan(ind)  -nan(ind)  -nan(ind)  -nan(ind)  -nan(ind)
  8976.1                  2.89   -nan(ind)  -nan(ind)  -nan(ind)  -nan(ind)  -nan(ind)  -nan(ind)  -nan(ind)  -nan(ind)  -nan(ind)
  8978.1                  1.00   -nan(ind)  -nan(ind)  -nan(ind)  -nan(ind)  -nan(ind)  -nan(ind)  -nan(ind)  -nan(ind)  -nan(ind)
  8979.1                  1.00   -nan(ind)  -nan(ind)  -nan(ind)  -nan(ind)  -nan(ind)  -nan(ind)  -nan(ind)  -nan(ind)  -nan(ind)
  8980.1                  1.00   -nan(ind)  -nan(ind)  -nan(ind)  -nan(ind)  -nan(ind)  -nan(ind)  -nan(ind)  -nan(ind)  -nan(ind)
  8981.1                  1.00   -nan(ind)  -nan(ind)  -nan(ind)  -nan(ind)  -nan(ind)  -nan(ind)  -nan(ind)  -nan(ind)  -nan(ind)
  9104.1                 26.92   -nan(ind)  -nan(ind)  -nan(ind)  -nan(ind)  -nan(ind)  -nan(ind)  -nan(ind)  -nan(ind)  -nan(ind)
  9105.1                  1.00   -nan(ind)  -nan(ind)  -nan(ind)  -nan(ind)  -nan(ind)  -nan(ind)  -nan(ind)  -nan(ind)  -nan(ind)
  9111.1                  1.00   -nan(ind)  -nan(ind)  -nan(ind)  -nan(ind)  -nan(ind)  -nan(ind)  -nan(ind)  -nan(ind)  -nan(ind)
  9112.1                  1.00   -nan(ind)  -nan(ind)  -nan(ind)  -nan(ind)  -nan(ind)  -nan(ind)  -nan(ind)  -nan(ind)  -nan(ind)
  9114.1                  1.00   -nan(ind)  -nan(ind)  -nan(ind)  -nan(ind)  -nan(ind)  -nan(ind)  -nan(ind)  -nan(ind)  -nan(ind)
  9116.1                  1.00   -nan(ind)  -nan(ind)  -nan(ind)  -nan(ind)  -nan(ind)  -nan(ind)  -nan(ind)  -nan(ind)  -nan(ind)
  9123.1                  1.00   -nan(ind)  -nan(ind)  -nan(ind)  -nan(ind)  -nan(ind)  -nan(ind)  -nan(ind)  -nan(ind)  -nan(ind)
  9124.1                  3.42   -nan(ind)  -nan(ind)  -nan(ind)  -nan(ind)  -nan(ind)  -nan(ind)  -nan(ind)  -nan(ind)  -nan(ind)
  9134.1                  1.00   -nan(ind)  -nan(ind)  -nan(ind)  -nan(ind)  -nan(ind)  -nan(ind)  -nan(ind)  -nan(ind)  -nan(ind)
  9135.1                  2.14   -nan(ind)  -nan(ind)  -nan(ind)  -nan(ind)  -nan(ind)  -nan(ind)  -nan(ind)  -nan(ind)  -nan(ind)
  9136.1                  1.00   -nan(ind)  -nan(ind)  -nan(ind)  -nan(ind)  -nan(ind)  -nan(ind)  -nan(ind)  -nan(ind)  -nan(ind)
  9137.1                  1.00   -nan(ind)  -nan(ind)  -nan(ind)  -nan(ind)  -nan(ind)  -nan(ind)  -nan(ind)  -nan(ind)  -nan(ind)
  9138.1                  1.00   -nan(ind)  -nan(ind)  -nan(ind)  -nan(ind)  -nan(ind)  -nan(ind)  -nan(ind)  -nan(ind)  -nan(ind)
  9999.1                  1.00   -nan(ind)  -nan(ind)  -nan(ind)  -nan(ind)  -nan(ind)  -nan(ind)  -nan(ind)  -nan(ind)  -nan(ind)
  
  
  *************************
  Conduit Surcharge Summary
  *************************
  
  No conduits were surcharged.
  
  
  ***************
  Pumping Summary
  ***************
  
  ---------------------------------------------------------------------------------------------------------
                                                  Min       Avg       Max     Total     Power    % Time Off
                        Percent   Number of      Flow      Flow      Flow    Volume     Usage    Pump Curve
  Pump                 Utilized   Start-Ups       MGD       MGD       MGD  10^6 gal     Kw-hr    Low   High
  ---------------------------------------------------------------------------------------------------------
  15316.2              -nan(ind)           0      0.00      0.00      0.00     0.000      0.00    0.0    0.0
  

  Analysis begun on:  Sat Nov 30 08:10:30 2019
  Analysis ended on:  Sat Nov 30 08:10:30 2019
  Total elapsed time: < 1 sec