
  EPA STORM WATER MANAGEMENT MODEL - VERSION 5.1 (Build 5.1.013)
  --------------------------------------------------------------

  WARNING 03: negative offset ignored for Link 113
  WARNING 03: negative offset ignored for Link 1460
  WARNING 03: negative offset ignored for Link 1632
  WARNING 03: negative offset ignored for Link 1644
  WARNING 03: negative offset ignored for Link 166
  WARNING 03: negative offset ignored for Link 167
  WARNING 03: negative offset ignored for Link 179
  WARNING 03: negative offset ignored for Link 1841
  WARNING 03: negative offset ignored for Link 1862
  WARNING 03: negative offset ignored for Link 1863
  WARNING 03: negative offset ignored for Link 1905
  WARNING 03: negative offset ignored for Link 191
  WARNING 03: negative offset ignored for Link 2100
  WARNING 03: negative offset ignored for Link 2101
  WARNING 03: negative offset ignored for Link 2289
  WARNING 03: negative offset ignored for Link 2318
  WARNING 03: negative offset ignored for Link 2321
  WARNING 03: negative offset ignored for Link 2322
  WARNING 03: negative offset ignored for Link 2335
  WARNING 03: negative offset ignored for Link 2475
  WARNING 03: negative offset ignored for Link 2476
  WARNING 04: minimum elevation drop used for Conduit 2520
  WARNING 03: negative offset ignored for Link 2585
  WARNING 03: negative offset ignored for Link 2651
  WARNING 03: negative offset ignored for Link 2653
  WARNING 03: negative offset ignored for Link 2655
  WARNING 03: negative offset ignored for Link 2671
  WARNING 03: negative offset ignored for Link 2694
  WARNING 04: minimum elevation drop used for Conduit 2694
  WARNING 03: negative offset ignored for Link 2751
  WARNING 03: negative offset ignored for Link 2752
  WARNING 03: negative offset ignored for Link 2803
  WARNING 03: negative offset ignored for Link 2803
  WARNING 03: negative offset ignored for Link 2804
  WARNING 03: negative offset ignored for Link 2861
  WARNING 03: negative offset ignored for Link 2862
  WARNING 03: negative offset ignored for Link 3037
  WARNING 03: negative offset ignored for Link 3038
  WARNING 03: negative offset ignored for Link 3119
  WARNING 03: negative offset ignored for Link 3156
  WARNING 03: negative offset ignored for Link 3185
  WARNING 03: negative offset ignored for Link 3185
  WARNING 03: negative offset ignored for Link 3187
  WARNING 03: negative offset ignored for Link 3192
  WARNING 03: negative offset ignored for Link 3228
  WARNING 03: negative offset ignored for Link 3277
  WARNING 03: negative offset ignored for Link 3319
  WARNING 03: negative offset ignored for Link 3319
  WARNING 03: negative offset ignored for Link 3320
  WARNING 03: negative offset ignored for Link 3320
  WARNING 03: negative offset ignored for Link 3321
  WARNING 03: negative offset ignored for Link 3436
  WARNING 03: negative offset ignored for Link 344
  WARNING 03: negative offset ignored for Link 3517
  WARNING 03: negative offset ignored for Link 3523
  WARNING 03: negative offset ignored for Link 3526
  WARNING 03: negative offset ignored for Link 3603
  WARNING 03: negative offset ignored for Link 3604
  WARNING 03: negative offset ignored for Link 3604
  WARNING 03: negative offset ignored for Link 3618
  WARNING 03: negative offset ignored for Link 3618
  WARNING 03: negative offset ignored for Link 406
  WARNING 03: negative offset ignored for Link 408
  WARNING 03: negative offset ignored for Link 4600
  WARNING 03: negative offset ignored for Link 4600
  WARNING 03: negative offset ignored for Link 826
  WARNING 03: negative offset ignored for Link 827
  WARNING 03: negative offset ignored for Link 911
  WARNING 03: negative offset ignored for Link 912
  WARNING 02: maximum depth increased for Node 9A-17-20-1-2
  
  **********************           Volume        Volume
  Rainfall Dependent I/I        acre-feet      10^6 gal
  **********************        ---------     ---------
  Sewershed Rainfall ......        92.650        30.191
  RDII Produced ...........         1.849         0.603
  RDII Ratio ..............         0.020
  
  
  *********************************************************
  NOTE: The summary statistics displayed in this report are
  based on results found at every computational time step,  
  not just on results from each reporting time step.
  *********************************************************
  
  ****************
  Analysis Options
  ****************
  Flow Units ............... GPM
  Process Models:
    Rainfall/Runoff ........ YES
    RDII ................... YES
    Snowmelt ............... NO
    Groundwater ............ NO
    Flow Routing ........... YES
    Ponding Allowed ........ YES
    Water Quality .......... NO
  Flow Routing Method ...... DYNWAVE
  Surcharge Method ......... EXTRAN
  Starting Date ............ 01/07/2016 00:00:00
  Ending Date .............. 01/11/2016 23:00:00
  Antecedent Dry Days ...... 5.0
  Report Time Step ......... 01:00:00
  Routing Time Step ........ 30.00 sec
  Variable Time Step ....... YES
  Maximum Trials ........... 8
  Number of Threads ........ 1
  Head Tolerance ........... 0.001000 ft
  
  
  **************************        Volume        Volume
  Flow Routing Continuity        acre-feet      10^6 gal
  **************************     ---------     ---------
  Dry Weather Inflow .......        50.418        16.429
  Wet Weather Inflow .......         0.000         0.000
  Groundwater Inflow .......         0.000         0.000
  RDII Inflow ..............         1.776         0.579
  External Inflow ..........         0.000         0.000
  External Outflow .........        21.062         6.863
  Flooding Loss ............        27.771         9.050
  Evaporation Loss .........         0.000         0.000
  Exfiltration Loss ........         0.000         0.000
  Initial Stored Volume ....         0.000         0.000
  Final Stored Volume ......         0.691         0.225
  Continuity Error (%) .....         5.116
  
  
  *************************
  Highest Continuity Errors
  *************************
  Node CALAROGAPS_WETWELL (100.00%)
  Node FAKE9 (50.08%)
  Node MARYLHURSTPS_WETWELL (37.53%)
  Node FAKE22 (32.87%)
  Node 4A-2-3 (24.81%)
  
  
  ***************************
  Time-Step Critical Elements
  ***************************
  Link 2729 (70.64%)
  Node WILLAMETTEPS_WETWELL (19.61%)
  Node BOLTONPS_WETWELL (6.96%)
  Node MAPLETONPS_WETWELL (1.47%)
  
  
  ********************************
  Highest Flow Instability Indexes
  ********************************
  Link 2226 (46)
  Link 2223 (39)
  Link 2230 (32)
  Link 2232 (32)
  Link 2335 (26)
  
  
  *************************
  Routing Time Step Summary
  *************************
  Minimum Time Step           :     0.05 sec
  Average Time Step           :     8.22 sec
  Maximum Time Step           :    30.00 sec
  Percent in Steady State     :     0.00
  Average Iterations per Step :     7.99
  Percent Not Converging      :    99.72
  
  
  ******************
  Node Depth Summary
  ******************
  
  ---------------------------------------------------------------------------------
                                 Average  Maximum  Maximum  Time of Max    Reported
                                   Depth    Depth      HGL   Occurrence   Max Depth
  Node                 Type         Feet     Feet     Feet  days hr:min        Feet
  ---------------------------------------------------------------------------------
  10A-1                JUNCTION     0.04     0.05   135.70     3  06:20        0.05
  10A-1-0              JUNCTION     2.10     3.25   127.25     4  19:37        3.23
  10A-2                JUNCTION     0.05     0.07   141.02     3  06:16        0.07
  10A-2-1              JUNCTION     0.03     0.04   144.48     3  06:15        0.04
  10A-2-2              JUNCTION     0.03     0.04   151.22     3  06:14        0.04
  10A-2-3              JUNCTION     0.04     0.05   151.94     4  20:00        0.05
  10A-2-4              JUNCTION     0.04     0.05   152.22     3  06:09        0.05
  10A-2-5              JUNCTION     0.03     0.03   157.53     3  06:30        0.03
  10A-2-5-1            JUNCTION     0.02     0.02   161.64     0  06:15        0.02
  10A-2-5-2            JUNCTION     0.02     0.02   164.57     3  06:02        0.02
  11A-0-1              JUNCTION     0.27     0.32    51.76     4  20:17        0.32
  11A-0-2              JUNCTION     0.14     0.16    53.06     2  08:35        0.16
  11A-1                JUNCTION     0.08     0.10    58.73     2  08:34        0.10
  11A-10               JUNCTION     0.52     0.59    65.91     3  08:05        0.59
  11A-11               JUNCTION     0.19     0.23    66.43     3  08:02        0.23
  11A-11-0             JUNCTION     0.07     0.08    70.56     3  08:00        0.08
  11A-11-1             JUNCTION     0.05     0.06   117.62     3  08:00        0.06
  11A-11-2             JUNCTION     0.04     0.05   152.55     3  08:00        0.05
  11A-11-3             JUNCTION     0.06     0.07   153.10     3  08:00        0.07
  11A-11-4             JUNCTION     0.05     0.05   175.65     3  08:00        0.05
  11A-11-5             JUNCTION     0.05     0.06   185.16     3  08:00        0.06
  11A-11-6             JUNCTION     0.05     0.06   188.36     3  08:00        0.06
  11A-12               JUNCTION     0.19     0.23    67.70     2  08:12        0.23
  11A-13               JUNCTION     0.24     0.28    68.77     2  08:07        0.28
  11A-14               JUNCTION     0.25     0.30    69.00     2  08:06        0.30
  11A-15               JUNCTION     0.18     0.22    69.26     2  08:05        0.22
  11A-16               JUNCTION     0.20     0.24    69.64     2  08:05        0.24
  11A-17               JUNCTION     0.17     0.21    70.31     2  08:04        0.21
  11A-18               JUNCTION     0.28     0.34    71.05     2  08:02        0.34
  11A-19               JUNCTION     0.23     0.28    71.31     2  08:00        0.28
  11A-2                JUNCTION     0.33     0.39    59.75     2  08:33        0.38
  11A-20               JUNCTION     0.23     0.27    71.75     2  08:00        0.27
  11A-21               JUNCTION     0.21     0.26    72.22     2  08:00        0.26
  11A-22               JUNCTION     0.23     0.28    73.09     2  08:01        0.28
  11A-22-1             JUNCTION     0.19     0.23    73.13     2  08:00        0.23
  11A-23               JUNCTION     0.23     0.27    73.64     2  08:00        0.27
  11A-23-1             JUNCTION     0.14     0.17    75.54     2  08:00        0.17
  11A-24               JUNCTION     0.16     0.19    76.66     2  08:00        0.19
  11A-25               JUNCTION     0.22     0.26    77.26     2  08:00        0.26
  11A-25-0             JUNCTION     0.21     0.26    77.45     2  08:00        0.26
  11A-26               JUNCTION     0.20     0.24    78.03     2  08:00        0.24
  11A-27               JUNCTION     0.20     0.24    78.37     2  08:00        0.24
  11A-28               JUNCTION     0.23     0.27    78.52     2  08:00        0.27
  11A-29               JUNCTION     0.19     0.23    79.26     2  08:00        0.23
  11A-3                JUNCTION     0.26     0.31    60.29     2  08:30        0.30
  11A-30               JUNCTION     0.17     0.21    80.02     2  08:00        0.21
  11A-31               JUNCTION     0.14     0.17    80.52     2  08:00        0.17
  11A-32               JUNCTION     0.26     0.31    80.80     2  07:59        0.31
  11A-33               JUNCTION     0.09     0.11    83.43     2  07:56        0.11
  11A-34               JUNCTION     0.08     0.10    88.35     2  07:52        0.10
  11A-35               JUNCTION     0.16     0.19    88.55     2  07:50        0.19
  11A-36               JUNCTION     0.09     0.10    90.04     2  07:45        0.10
  11A-37               JUNCTION     0.12     0.15    91.02     3  07:28        0.15
  11A-38               JUNCTION     0.10     0.12    91.97     2  08:00        0.12
  11A-4                JUNCTION     0.28     0.33    61.11     2  08:25        0.33
  11A-5                JUNCTION     0.29     0.35    61.82     2  08:22        0.34
  11A-6                JUNCTION     0.24     0.29    62.56     2  08:20        0.28
  11A-7                JUNCTION     0.28     0.33    63.54     2  08:16        0.33
  11A-8                JUNCTION     0.25     0.30    64.45     2  08:13        0.30
  11A-9                JUNCTION     0.26     0.32    64.88     2  08:10        0.32
  11A-9-0              JUNCTION     0.25     0.30    65.39     2  08:08        0.30
  11A-9-0-0            JUNCTION     0.13     0.15    65.64     3  08:07        0.15
  1A-1                 JUNCTION     0.00     0.00    34.10     4  23:00        0.00
  1A-10                JUNCTION     0.35     0.44    38.64     4  21:18        0.44
  1A-11                JUNCTION     0.28     0.34    38.84     4  21:17        0.34
  1A-12                JUNCTION     0.29     0.36    39.16     4  21:16        0.36
  1A-13                JUNCTION     0.31     0.37    39.67     4  21:14        0.37
  1A-14                JUNCTION     0.28     0.34    40.04     4  21:13        0.34
  1A-15                JUNCTION     0.29     0.35    40.35     4  21:12        0.35
  1A-16                JUNCTION     0.28     0.34    40.84     4  21:12        0.34
  1A-17                JUNCTION     0.25     0.30    41.20     4  21:11        0.30
  1A-18                JUNCTION     0.31     0.38    41.68     4  21:10        0.38
  1A-19                JUNCTION     0.27     0.33    41.93     4  21:09        0.33
  1A-2                 JUNCTION     0.28     0.35    34.85     4  21:33        0.35
  1A-2-0               JUNCTION     0.10     0.13    33.33     4  21:38        0.13
  1A-20                JUNCTION     0.31     0.38    42.48     4  21:08        0.38
  1A-21                JUNCTION     0.13     0.16    47.96     4  21:07        0.16
  1A-22                JUNCTION     0.17     0.21    51.21     4  21:07        0.21
  1A-22-2              JUNCTION     0.00     0.00   116.50     0  00:00        0.00
  1A-22-3              JUNCTION     0.00     0.00   124.69     0  00:00        0.00
  1A-23                JUNCTION     0.21     0.26    51.96     4  21:06        0.26
  1A-24                JUNCTION     0.27     0.32    52.82     4  21:06        0.32
  1A-25                JUNCTION     0.27     0.34    53.14     4  21:05        0.34
  1A-26                JUNCTION     0.27     0.33    53.63     4  21:05        0.33
  1A-27                JUNCTION     0.15     0.18    61.48     4  21:04        0.18
  1A-28                JUNCTION     0.13     0.16    82.06     4  21:04        0.16
  1A-29                JUNCTION     0.19     0.23    87.03     4  21:03        0.23
  1A-3                 JUNCTION     0.40     0.49    35.49     4  21:31        0.49
  1A-30                JUNCTION     0.18     0.22    89.62     4  21:03        0.22
  1A-31                JUNCTION     0.13     0.16    97.66     4  21:03        0.16
  1A-36                JUNCTION     0.15     0.18   166.88     4  21:00        0.18
  1A-37                JUNCTION     0.24     0.28   167.38     4  21:00        0.28
  1A-37-1              JUNCTION     0.10     0.11   184.81     4  20:59        0.11
  1A-37-1-0            JUNCTION     0.19     0.23   200.34     4  20:59        0.23
  1A-37-2              JUNCTION     0.17     0.20   214.40     4  20:59        0.20
  1A-38                JUNCTION     0.17     0.20   216.70     0  00:03        0.20
  1A-39                JUNCTION     0.17     0.20   237.60     4  20:58        0.20
  1A-39-0              JUNCTION     0.16     0.20   240.30     4  20:58        0.20
  1A-39-1              JUNCTION     0.14     0.34   240.14     0  00:02        0.16
  1A-39-10             JUNCTION     0.08     0.09   359.87     4  20:39        0.09
  1A-39-11             JUNCTION     0.08     0.10   377.67     4  20:30        0.10
  1A-39-2              JUNCTION     0.13     0.31   241.26     0  00:01        0.16
  1A-39-3              JUNCTION     0.11     0.30   247.40     0  00:00        0.13
  1A-39-5              JUNCTION     0.08     0.19   299.19     0  00:00        0.09
  1A-39-6              JUNCTION     0.13     0.32   301.32     0  00:01        0.15
  1A-39-7              JUNCTION     0.07     0.18   319.41     0  00:00        0.08
  1A-39-8              JUNCTION     0.15     0.67   323.19     0  00:00        0.18
  1A-39-9              JUNCTION     0.07     0.09   335.52     4  20:47        0.09
  1A-4                 JUNCTION     0.35     0.44    35.84     4  21:27        0.44
  1A-40                JUNCTION     0.14     0.16   264.30     4  20:58        0.16
  1A-41                JUNCTION     0.13     0.16   302.72     4  20:57        0.16
  1A-42                JUNCTION     0.14     0.16   316.84     4  20:56        0.16
  1A-43                JUNCTION     0.13     0.15   321.92     4  20:56        0.15
  1A-44                JUNCTION     0.13     0.16   332.11     4  20:56        0.16
  1A-44-0-1            JUNCTION     0.13     0.15   342.26     4  20:55        0.15
  1A-44-0-2            JUNCTION     0.13     0.15   357.41     4  20:55        0.15
  1A-45                JUNCTION     0.13     0.15   362.40     4  20:54        0.15
  1A-46                JUNCTION     0.11     0.12   372.07     4  20:54        0.12
  1A-47                JUNCTION     0.23     0.27   373.28     4  20:53        0.27
  1A-47-1              JUNCTION     0.02     0.02   403.94     4  19:45        0.02
  1A-47-3              JUNCTION     0.02     0.03   430.56     4  19:38        0.03
  1A-48                JUNCTION     0.12     0.14   405.21     4  21:00        0.14
  1A-49                JUNCTION     0.11     0.13   443.63     4  20:59        0.13
  1A-5                 JUNCTION     0.39     0.49    36.59     4  21:24        0.49
  1A-50                JUNCTION     0.11     0.13   456.00     4  21:00        0.13
  1A-51                JUNCTION     0.08     0.09   501.74     4  20:59        0.09
  1A-51-1              JUNCTION     0.00     0.00   538.20     0  00:00        0.00
  1A-51-2              JUNCTION     0.00     0.00   586.37     0  00:00        0.00
  1A-52                JUNCTION     0.09     0.11   518.31     4  20:58        0.11
  1A-53                JUNCTION     0.09     0.10   524.58     4  20:59        0.10
  1A-54                JUNCTION     0.13     0.16   528.26     4  20:57        0.16
  1A-55                JUNCTION     0.11     0.13   538.44     4  20:47        0.13
  1A-56                JUNCTION     0.00     0.00   551.19     0  00:00        0.00
  1A-6                 JUNCTION     0.35     0.44    36.94     4  21:23        0.44
  1A-7                 JUNCTION     0.34     0.43    37.13     4  21:22        0.43
  1A-8                 JUNCTION     0.38     0.48    37.48     4  21:21        0.47
  1A-9                 JUNCTION     0.34     0.43    37.83     4  21:20        0.42
  1B-10                JUNCTION     0.13     0.16   143.06     4  20:45        0.16
  1B-13                JUNCTION     0.10     0.27   148.58     0  00:00        0.13
  1B-17                JUNCTION     0.05     0.06   176.83     4  20:48        0.06
  1B-18                JUNCTION     0.04     0.05   184.25     4  20:57        0.05
  1B-19                JUNCTION     0.04     0.05   212.05     4  20:32        0.05
  1B-2                 JUNCTION     0.03     0.03    43.41     4  21:00        0.03
  1B-20                JUNCTION     0.05     0.06   224.68     4  20:31        0.06
  1B-3                 JUNCTION     0.03     0.04    59.92     4  21:00        0.04
  1B-4                 JUNCTION     0.03     0.04    87.47     4  21:00        0.04
  1B-5                 JUNCTION     0.03     0.03    95.13     4  21:00        0.03
  1B-6                 JUNCTION     0.00     0.00    96.44     0  00:00        0.00
  1B-7-1               JUNCTION     0.00     0.00    99.42     0  00:00        0.00
  1B-7-13              JUNCTION     0.00     0.00   148.20     0  00:00        0.00
  1B-8                 JUNCTION     0.11     0.14   112.82     4  20:56        0.14
  1B-8-0               JUNCTION     0.06     0.07   119.26     4  20:37        0.07
  1B-8-0-0             JUNCTION     0.05     0.07   130.70     4  20:36        0.07
  1B-8-1               JUNCTION     0.05     0.07   150.50     4  20:36        0.07
  1B-8-1-1             JUNCTION     0.05     0.07   159.04     4  20:34        0.07
  1B-8-1-2             JUNCTION     0.06     0.07   162.07     4  20:31        0.07
  1B-8-2               JUNCTION     0.05     0.06   157.16     4  19:36        0.06
  1B-8-3               JUNCTION     0.04     0.05   173.05     4  19:34        0.05
  1B-8-4               JUNCTION     0.08     0.09   173.99     4  19:32        0.09
  1B-9                 JUNCTION     0.08     0.10   140.35     4  20:55        0.10
  1B-9-0               JUNCTION     0.07     0.09   119.98     4  20:55        0.09
  1C-5-0               JUNCTION     0.17     0.20   104.93     4  21:03        0.20
  2A                   JUNCTION     0.44     0.56    24.85     0  01:04        0.54
  2A-0-0               JUNCTION     0.18     0.21    37.85     4  20:12        0.21
  2A-0-1               JUNCTION     0.37     0.45    38.25     4  20:11        0.45
  2A-0-2               JUNCTION     0.17     0.20    45.70     4  20:11        0.20
  2A-1                 JUNCTION     0.24     0.28    49.28     4  20:10        0.28
  2A-10                JUNCTION     0.12     0.14   120.14     4  20:04        0.14
  2A-10-3              JUNCTION     0.00     0.00    53.90     4  23:00        0.00
  2A-11                JUNCTION     0.15     0.18   132.00     4  20:04        0.18
  2A-12                JUNCTION     0.20     0.24   139.19     4  20:04        0.24
  2A-13                JUNCTION     0.70     0.83   143.05     4  20:03        0.83
  2A-13-0              JUNCTION     0.16     0.19   142.41     4  20:03        0.19
  2A-18                JUNCTION     0.12     0.28   227.38     0  00:01        0.14
  2A-18-0-1            JUNCTION     0.03     0.03   271.73     4  20:00        0.03
  2A-18-0-2            JUNCTION     0.02     0.02   294.52     4  20:53        0.02
  2A-18-0-3            JUNCTION     0.00     0.00   307.94     0  00:00        0.00
  2A-18-0-4            JUNCTION     0.00     0.00   322.72     0  00:00        0.00
  2A-18-1              JUNCTION     0.05     0.07   246.17     4  21:00        0.07
  2A-18-2              JUNCTION     0.06     0.07   250.22     4  20:31        0.07
  2A-19                JUNCTION     0.09     5.96   267.10     0  00:00        0.11
  2A-2                 JUNCTION     0.47     0.54    49.64     4  20:13        0.54
  2A-20                JUNCTION     0.11     0.67   274.52     0  00:00        0.13
  2A-21                JUNCTION     0.18     2.65   276.85     0  00:00        0.21
  2A-22                JUNCTION     0.07     0.09   305.67     3  06:30        0.09
  2A-23                JUNCTION     0.07     0.09   320.52     3  06:30        0.09
  2A-24                JUNCTION     0.10     0.12   332.26     3  06:30        0.12
  2A-25                JUNCTION     0.08     0.09   361.63     3  06:30        0.09
  2A-26                JUNCTION     0.09     0.11   382.86     3  06:30        0.11
  2A-27                JUNCTION     0.08     0.09   401.69     3  06:31        0.09
  2A-28                JUNCTION     0.08     0.09   425.99     3  06:30        0.09
  2A-29                JUNCTION     0.06     0.08   447.08     3  06:30        0.08
  2A-3                 JUNCTION     0.37     0.45    49.96     4  20:13        0.45
  2A-30                JUNCTION     0.07     0.09   463.19     3  06:30        0.09
  2A-31                JUNCTION     0.07     0.08   467.73     3  06:30        0.08
  2A-32                JUNCTION     0.07     0.09   475.66     3  06:30        0.09
  2A-33                JUNCTION     0.06     0.07   490.07     3  06:30        0.07
  2A-34                JUNCTION     0.06     0.08   492.18     3  06:30        0.08
  2A-34-1              JUNCTION     0.14     0.17   493.74     3  06:30        0.17
  2A-34-2              JUNCTION     0.06     0.07   511.08     3  06:20        0.07
  2A-34-3              JUNCTION     0.09     0.11   514.21     3  06:19        0.11
  2A-34-4              JUNCTION     0.07     0.09   518.19     3  06:18        0.09
  2A-34-4-1            JUNCTION     0.11     0.13   518.53     3  06:18        0.13
  2A-34-5              JUNCTION     0.11     0.13   519.53     3  06:14        0.13
  2A-34-5-1            JUNCTION     0.04     0.05   541.82     3  06:30        0.05
  2A-34-5-2            JUNCTION     0.03     0.04   552.95     3  06:30        0.04
  2A-34-5-3            JUNCTION     0.05     0.06   563.35     3  06:30        0.06
  2A-34-5-4            JUNCTION     0.04     0.05   573.20     3  06:28        0.05
  2A-34-5-4-1          JUNCTION     0.06     0.07   575.25     3  06:29        0.07
  2A-34-5-4-2          JUNCTION     0.03     0.04   591.24     3  06:28        0.04
  2A-34-5-4-3          JUNCTION     0.04     0.05   596.84     3  06:29        0.05
  2A-34-5-4-4          JUNCTION     0.03     0.04   617.10     3  06:30        0.04
  2A-35                JUNCTION     0.03     0.03   513.75     3  06:15        0.03
  2A-36                JUNCTION     0.03     0.04   521.39     3  06:12        0.04
  2A-37                JUNCTION     0.03     0.03   567.63     3  06:12        0.03
  2A-38                JUNCTION     0.03     0.03   605.43     3  06:10        0.03
  2A-39                JUNCTION     0.05     0.06   606.90     3  06:10        0.06
  2A-4                 JUNCTION     0.44     0.52    50.09     4  20:11        0.52
  2A-4-0               JUNCTION     0.33     0.41    50.21     4  20:11        0.41
  2A-40                JUNCTION     0.07     0.08   607.96     3  06:05        0.08
  2A-5                 JUNCTION     0.45     0.52    50.72     4  20:09        0.52
  2A-5-0               JUNCTION     0.25     0.30    50.83     4  20:07        0.30
  2A-6                 JUNCTION     0.52     0.60    51.10     4  20:06        0.60
  2A-7                 JUNCTION     0.30     0.36    51.56     4  20:05        0.36
  2A-8                 JUNCTION     1.51     1.58    51.58     4  20:04        1.58
  2A-9                 JUNCTION     0.12     0.14    91.54     4  20:04        0.14
  2B-0                 JUNCTION     0.14     0.17    49.87     3  06:59        0.17
  2B-0-0               JUNCTION     0.13     0.15    56.65     3  06:58        0.15
  2B-0-1               JUNCTION     0.11     0.13    67.43     3  06:58        0.13
  2B-0-10              JUNCTION     0.21     0.24   211.24     3  06:52        0.24
  2B-0-11              JUNCTION     0.18     0.21   220.31     3  06:52        0.21
  2B-0-12              JUNCTION     0.17     0.21   225.61     3  06:51        0.21
  2B-0-13              JUNCTION     0.17     0.20   245.20     3  06:51        0.20
  2B-0-14              JUNCTION     0.30     0.36   246.66     3  06:51        0.36
  2B-0-15              JUNCTION     0.28     0.33   247.83     3  06:50        0.33
  2B-0-2               JUNCTION     0.11     0.13    75.93     3  06:57        0.13
  2B-0-3               JUNCTION     0.12     0.14    80.59     3  06:57        0.14
  2B-0-4               JUNCTION     0.10     0.12   122.72     3  06:56        0.12
  2B-0-5               JUNCTION     0.11     0.13   143.56     3  06:56        0.13
  2B-0-6               JUNCTION     0.11     0.13   162.65     3  06:56        0.13
  2B-0-7               JUNCTION     0.13     0.15   185.15     3  06:55        0.15
  2B-0-8               JUNCTION     0.14     0.17   201.17     3  06:54        0.17
  2B-0-9               JUNCTION     0.19     0.22   202.02     3  06:53        0.22
  2B-1                 JUNCTION     0.13     0.14    73.04     4  21:00        0.14
  2B-1-0               JUNCTION     0.12     0.14   106.39     4  21:00        0.14
  2B-16                JUNCTION     0.22     0.26   248.16     3  06:49        0.26
  2B-17                JUNCTION     0.43     0.51   248.81     3  06:49        0.51
  2B-18                JUNCTION     0.35     0.43   248.97     3  06:48        0.43
  2B-19                JUNCTION     0.16     0.19   261.52     3  06:46        0.19
  2B-2                 JUNCTION     0.11     0.13   137.83     4  21:00        0.13
  2B-2-1               JUNCTION     0.03     0.03   170.43     4  20:40        0.03
  2B-2-2               JUNCTION     0.03     0.04   181.44     4  20:35        0.04
  2B-2-3               JUNCTION     0.00     0.00   197.70     0  00:00        0.00
  2B-2-4               JUNCTION     0.00     0.00   201.70     0  00:00        0.00
  2B-2-5               JUNCTION     0.00     0.00   216.40     0  00:00        0.00
  2B-2-5-1             JUNCTION     0.00     0.00   228.48     0  00:00        0.00
  2B-2-6               JUNCTION     0.00     0.00   240.99     0  00:00        0.00
  2B-20                JUNCTION     0.14     0.17   306.78     3  06:46        0.17
  2B-21                JUNCTION     0.12     0.14   332.75     3  06:46        0.14
  2B-21-1              JUNCTION     0.16     0.19   317.79     3  06:46        0.19
  2B-22                JUNCTION     0.12     0.14   392.05     3  06:45        0.14
  2B-23                JUNCTION     0.12     0.14   423.49     3  06:45        0.14
  2B-23-1              JUNCTION     0.07     0.08   455.63     3  06:30        0.08
  2B-23-2              JUNCTION     0.10     0.12   461.79     3  06:30        0.12
  2B-23-3              JUNCTION     0.14     0.17   464.20     3  06:30        0.17
  2B-23-4              JUNCTION     0.09     0.11   476.92     0  00:03        0.10
  2B-23-5              JUNCTION     0.08     0.10   488.61     0  00:02        0.09
  2B-23-5-1            JUNCTION     0.06     0.07   507.92     4  20:00        0.07
  2B-23-5-2            JUNCTION     0.06     0.07   524.46     4  20:00        0.07
  2B-23-5-3            JUNCTION     0.05     0.06   554.36     4  20:00        0.06
  2B-23-5-4            JUNCTION     0.05     0.06   572.87     4  20:00        0.06
  2B-23-5-5            JUNCTION     0.05     0.06   583.46     4  20:00        0.06
  2B-23-5-6            JUNCTION     0.04     0.05   621.85     4  19:33        0.05
  2B-23-5-6-0          JUNCTION     0.04     0.05   605.78     4  19:37        0.05
  2B-23-5-7            JUNCTION     0.04     0.05   626.25     4  19:58        0.05
  2B-23-5-8            JUNCTION     0.04     0.04   653.44     4  19:35        0.04
  2B-23-6              JUNCTION     0.10     0.19   491.29     0  00:02        0.12
  2B-23-7              JUNCTION     0.08     0.15   497.45     0  00:01        0.09
  2B-23-8              JUNCTION     0.09     0.20   502.70     0  00:00        0.11
  2B-23-8-1            JUNCTION     0.06     0.21   509.31     0  00:00        0.07
  2B-23-8-2            JUNCTION     0.05     0.05   542.25     3  06:24        0.05
  2B-23-8-3            JUNCTION     0.04     0.05   559.35     3  06:19        0.05
  2B-23-8-4            JUNCTION     0.04     0.04   576.84     3  06:20        0.04
  2B-23-8-5            JUNCTION     0.04     0.04   615.04     3  06:20        0.04
  2B-23-8-6            JUNCTION     0.03     0.04   639.44     3  06:01        0.04
  2B-24                JUNCTION     0.13     0.15   468.17     3  06:45        0.15
  2B-25                JUNCTION     0.22     0.26   471.28     3  06:44        0.26
  2B-26                JUNCTION     0.18     0.22   474.05     3  06:43        0.22
  2B-27                JUNCTION     0.18     0.21   484.99     3  06:43        0.21
  2B-28                JUNCTION     0.22     0.26   485.79     3  06:42        0.26
  2B-29                JUNCTION     0.11     0.14   494.54     3  06:42        0.14
  2B-3                 JUNCTION     0.29     0.33   139.08     4  21:00        0.33
  2B-30                JUNCTION     0.11     0.13   530.62     3  06:41        0.13
  2B-31                JUNCTION     0.21     0.25   531.40     3  06:41        0.25
  2B-32                JUNCTION     0.16     0.20   540.17     3  06:41        0.20
  2B-33                JUNCTION     0.24     0.29   541.93     3  06:40        0.29
  2B-34                JUNCTION     0.22     0.26   543.04     3  06:39        0.26
  2B-35                JUNCTION     0.20     0.24   543.90     3  06:38        0.24
  2B-36                JUNCTION     0.22     0.26   545.45     3  06:38        0.26
  2B-37                JUNCTION     0.21     0.25   547.19     3  06:37        0.25
  2B-38                JUNCTION     0.20     0.23   547.97     3  06:36        0.23
  2B-38-1              JUNCTION     0.15     0.18   548.21     4  20:01        0.18
  2B-38-10             JUNCTION     0.09     0.10   555.98     4  20:00        0.10
  2B-38-11             JUNCTION     0.04     0.05   567.10     4  20:00        0.05
  2B-38-12             JUNCTION     0.10     0.11   567.78     4  20:00        0.11
  2B-38-13             JUNCTION     0.08     0.09   568.53     4  20:00        0.09
  2B-38-14             JUNCTION     0.08     0.10   569.90     4  19:47        0.10
  2B-38-15             JUNCTION     0.07     0.09   572.61     4  20:00        0.09
  2B-38-16             JUNCTION     0.06     0.07   573.31     4  20:00        0.07
  2B-38-17             JUNCTION     0.07     0.08   574.42     4  20:00        0.08
  2B-38-18             JUNCTION     0.07     0.08   576.08     4  20:00        0.08
  2B-38-19             JUNCTION     0.03     0.04   584.34     4  20:00        0.04
  2B-38-2              JUNCTION     0.14     0.17   549.14     4  20:00        0.17
  2B-38-20             JUNCTION     0.06     0.07   586.27     4  20:00        0.07
  2B-38-21             JUNCTION     0.03     0.04   603.14     4  19:55        0.04
  2B-38-22             JUNCTION     0.03     0.04   619.84     3  06:11        0.04
  2B-38-3              JUNCTION     0.14     0.17   549.78     4  20:00        0.17
  2B-38-4              JUNCTION     0.15     0.18   550.63     4  20:00        0.18
  2B-38-5              JUNCTION     0.14     0.17   551.25     4  20:00        0.17
  2B-38-5-1            JUNCTION     0.05     0.06   581.66     4  20:00        0.06
  2B-38-5-10           JUNCTION     0.00     0.00   628.83     0  00:00        0.00
  2B-38-5-2            JUNCTION     0.15     0.17   585.37     4  20:00        0.17
  2B-38-5-3            JUNCTION     0.05     0.06   590.86     3  06:30        0.06
  2B-38-5-4            JUNCTION     0.04     0.05   604.85     3  06:30        0.05
  2B-38-5-5            JUNCTION     0.06     0.07   607.97     3  06:30        0.07
  2B-38-5-6            JUNCTION     0.04     0.05   625.78     3  06:30        0.05
  2B-38-5-7            JUNCTION     0.08     0.09   626.50     3  06:30        0.09
  2B-38-5-8            JUNCTION     0.08     0.09   627.51     3  06:30        0.09
  2B-38-5-9            JUNCTION     0.00     0.00   628.05     0  00:00        0.00
  2B-38-6              JUNCTION     0.10     0.11   551.94     3  06:35        0.11
  2B-38-7              JUNCTION     0.10     0.12   552.86     3  06:33        0.12
  2B-38-8              JUNCTION     0.09     0.10   554.19     4  20:00        0.10
  2B-38-9              JUNCTION     0.09     0.10   555.19     4  19:56        0.10
  2B-39                JUNCTION     0.11     0.13   555.98     3  06:29        0.13
  2B-4                 JUNCTION     0.26     0.30   139.40     4  21:00        0.30
  2B-40                JUNCTION     0.11     0.14   562.81     3  06:29        0.14
  2B-41                JUNCTION     0.10     0.11   574.29     3  06:29        0.11
  2B-42                JUNCTION     0.14     0.17   577.75     3  06:28        0.17
  2B-43                JUNCTION     0.10     0.12   587.63     3  06:28        0.12
  2B-44                JUNCTION     0.11     0.13   596.56     3  06:28        0.13
  2B-45                JUNCTION     0.11     0.13   599.13     3  06:27        0.13
  2B-46                JUNCTION     0.11     0.13   606.73     3  06:27        0.13
  2B-47                JUNCTION     0.09     0.10   621.70     3  06:27        0.10
  2B-48                JUNCTION     0.08     0.10   634.20     3  06:26        0.10
  2B-49                JUNCTION     0.15     0.18   635.56     3  06:26        0.18
  2B-49-1              JUNCTION     0.04     0.05   653.60     4  20:00        0.05
  2B-5                 JUNCTION     0.14     0.16   146.56     4  21:00        0.16
  2B-50                JUNCTION     0.09     0.11   636.19     3  06:25        0.11
  2B-51                JUNCTION     0.14     0.16   637.11     3  06:24        0.16
  2B-51-1              JUNCTION     0.11     0.13   638.37     3  06:22        0.13
  2B-52                JUNCTION     0.08     0.10   638.98     3  06:22        0.10
  2B-52-1              JUNCTION     0.05     0.06   655.04     4  20:00        0.06
  2B-52-2              JUNCTION     0.04     0.05   663.09     4  20:00        0.05
  2B-52-3              JUNCTION     0.05     0.06   665.65     4  20:00        0.06
  2B-52-4              JUNCTION     0.05     0.06   672.73     4  20:00        0.06
  2B-53                JUNCTION     3.15     3.19   647.24     3  07:00        3.19
  2B-53-1              JUNCTION     0.06     0.08   647.24     3  06:21        0.08
  2B-54                JUNCTION     1.76     1.81   647.26     2  06:00        1.79
  2B-55                JUNCTION     0.05     0.06   648.54     3  06:30        0.06
  2B-56                JUNCTION     0.05     0.06   651.13     3  06:27        0.06
  2B-57                JUNCTION     0.04     0.05   666.31     3  06:07        0.05
  2B-58                JUNCTION     0.09     0.10   667.28     3  06:04        0.10
  2B-6                 JUNCTION     0.26     0.30   147.28     4  21:00        0.30
  2B-7                 JUNCTION     0.24     0.27   148.57     4  21:00        0.27
  2B-7-1               JUNCTION     0.20     0.23   150.43     4  21:00        0.23
  2B-7-10              JUNCTION     0.15     0.17   194.15     4  21:00        0.17
  2B-7-11              JUNCTION     0.17     0.19   194.45     4  21:00        0.19
  2B-7-12              JUNCTION     0.08     0.08   208.10     4  21:00        0.08
  2B-7-13              JUNCTION     0.08     0.08   220.67     4  21:00        0.08
  2B-7-14              JUNCTION     0.11     0.13   221.66     4  21:00        0.13
  2B-7-15              JUNCTION     0.14     0.16   222.96     4  21:00        0.16
  2B-7-15-1            JUNCTION     0.06     0.07   248.07     4  20:56        0.07
  2B-7-16              JUNCTION     0.08     0.10   223.73     4  21:54        0.10
  2B-7-17              JUNCTION     0.08     0.09   224.58     4  21:50        0.09
  2B-7-18              JUNCTION     0.08     0.09   225.00     4  21:46        0.09
  2B-7-19              JUNCTION     0.07     0.09   225.54     4  21:47        0.09
  2B-7-2               JUNCTION     0.19     0.22   152.22     4  21:00        0.22
  2B-7-20              JUNCTION     0.08     0.09   227.09     4  21:37        0.09
  2B-7-3               JUNCTION     0.20     0.24   153.34     4  21:00        0.24
  2B-7-4               JUNCTION     0.11     0.12   164.12     4  21:00        0.12
  2B-7-5               JUNCTION     0.17     0.20   165.00     4  21:00        0.20
  2B-7-6               JUNCTION     0.15     0.17   172.07     4  21:00        0.17
  2B-7-7               JUNCTION     0.11     0.12   181.65     4  21:00        0.12
  2B-7-8               JUNCTION     0.14     0.16   182.35     4  21:01        0.16
  2B-7-9               JUNCTION     0.09     0.10   193.41     4  21:00        0.10
  2C-1                 JUNCTION     0.09     0.11   257.29     3  06:44        0.11
  2C-2                 JUNCTION     0.13     0.15   258.95     3  06:42        0.15
  2C-3                 JUNCTION     0.06     0.07   321.67     3  06:41        0.07
  2C-4                 JUNCTION     0.06     0.07   368.37     3  06:40        0.07
  2C-4-0-1             JUNCTION     0.08     0.10   369.80     3  06:40        0.10
  2C-4-0-10            JUNCTION     0.10     0.11   461.21     3  06:30        0.11
  2C-4-0-11            JUNCTION     0.04     0.04   493.14     3  06:30        0.04
  2C-4-0-12            JUNCTION     0.03     0.04   548.94     3  06:19        0.04
  2C-4-0-13            JUNCTION     0.04     0.05   561.25     3  06:01        0.04
  2C-4-0-2             JUNCTION     0.07     0.08   372.28     3  06:39        0.08
  2C-4-0-3             JUNCTION     0.05     0.06   379.56     3  06:38        0.06
  2C-4-0-4             JUNCTION     0.04     0.04   407.44     3  06:37        0.04
  2C-4-0-5             JUNCTION     0.04     0.05   429.05     3  06:37        0.05
  2C-4-0-6             JUNCTION     0.04     0.05   448.55     3  06:36        0.05
  2C-4-0-7             JUNCTION     0.05     0.06   458.66     3  06:36        0.06
  2C-4-0-7-0           JUNCTION     0.14     0.17   459.11     3  06:35        0.17
  2C-4-0-8             JUNCTION     0.08     0.09   460.88     3  06:30        0.09
  2C-4-0-9             JUNCTION     0.10     0.12   461.02     3  06:30        0.12
  2C-4-1               JUNCTION     0.03     0.04   415.14     3  06:30        0.04
  2C-4-2               JUNCTION     0.04     0.05   435.35     3  06:30        0.05
  2C-4-3               JUNCTION     0.05     0.06   449.76     3  06:30        0.06
  2C-4-4               JUNCTION     0.04     0.05   480.05     3  06:30        0.05
  2C-4-5               JUNCTION     0.06     0.07   485.77     3  06:30        0.07
  2C-4-6               JUNCTION     0.04     0.04   493.54     3  06:06        0.04
  2C-5                 JUNCTION     0.05     0.06   374.96     4  19:49        0.06
  2C-6                 JUNCTION     0.05     0.06   376.86     3  06:08        0.06
  2C-7                 JUNCTION     0.03     0.03   393.63     3  06:06        0.03
  2I-1                 JUNCTION     0.15     0.19   103.06     4  21:09        0.19
  2I-10                JUNCTION     0.26     0.32   106.67     4  20:50        0.32
  2I-11                JUNCTION     0.27     0.32   106.87     4  20:49        0.32
  2I-11-1              JUNCTION     0.09     0.11   109.71     4  20:56        0.11
  2I-12                JUNCTION     0.19     0.23   107.08     4  20:21        0.23
  2I-13                JUNCTION     0.12     0.15   107.14     4  20:19        0.15
  2I-14                JUNCTION     0.12     0.15   109.76     4  20:17        0.15
  2I-15                JUNCTION     0.12     0.14   111.31     4  20:16        0.14
  2I-16                JUNCTION     0.10     0.12   113.02     4  20:15        0.12
  2I-17                JUNCTION     0.08     0.09   115.48     4  20:14        0.09
  2I-18                JUNCTION     0.12     0.14   115.89     4  20:13        0.14
  2I-19                JUNCTION     0.09     0.11   119.54     4  20:13        0.11
  2I-2                 JUNCTION     0.23     0.28   104.10     4  21:09        0.28
  2I-20                JUNCTION     0.17     0.20   119.83     4  20:12        0.20
  2I-21                JUNCTION     0.20     0.23   120.23     4  20:11        0.23
  2I-22                JUNCTION     0.17     0.20   120.46     4  20:10        0.20
  2I-23                JUNCTION     0.14     0.17   120.72     4  20:09        0.17
  2I-24                JUNCTION     0.12     0.14   122.91     4  20:08        0.14
  2I-25                JUNCTION     0.11     0.13   124.78     4  20:00        0.13
  2I-26                JUNCTION     0.09     0.11   127.62     4  20:06        0.11
  2I-27                JUNCTION     0.08     0.09   131.61     4  20:05        0.09
  2I-28                JUNCTION     0.08     0.09   133.48     4  20:05        0.09
  2I-29                JUNCTION     0.06     0.07   140.77     4  20:04        0.07
  2I-3                 JUNCTION     0.26     0.32   104.32     4  21:07        0.32
  2I-30                JUNCTION     0.07     0.09   146.79     4  20:03        0.09
  2I-31                JUNCTION     0.10     0.12   147.52     4  20:02        0.12
  2I-32                JUNCTION     0.11     0.13   149.13     4  20:02        0.13
  2I-33                JUNCTION     0.17     0.20   159.30     4  20:01        0.20
  2I-34                JUNCTION     0.17     0.20   168.31     4  20:01        0.20
  2I-35                JUNCTION     0.17     0.21   176.42     0  00:03        0.20
  2I-36                JUNCTION     0.10     0.16   181.69     0  00:02        0.12
  2I-37                JUNCTION     0.23     0.27   182.62     4  20:15        0.27
  2I-38                JUNCTION     0.15     0.18   186.12     4  20:14        0.18
  2I-39                JUNCTION     0.28     0.33   187.77     4  20:13        0.33
  2I-4                 JUNCTION     0.24     0.30   104.45     4  21:06        0.30
  2I-40                JUNCTION     0.32     0.37   188.15     4  20:11        0.37
  2I-41                JUNCTION     0.29     0.34   188.26     4  20:10        0.34
  2I-43                JUNCTION     0.33     0.38   188.64     4  20:08        0.38
  2I-44                JUNCTION     0.27     0.31   188.75     3  07:07        0.31
  2I-45                JUNCTION     0.12     0.15   195.92     3  07:07        0.15
  2I-46                JUNCTION     0.14     0.17   196.67     3  07:07        0.17
  2I-47                JUNCTION     0.23     0.27   197.48     3  07:06        0.27
  2I-48                JUNCTION     0.24     0.28   198.41     3  07:05        0.28
  2I-49                JUNCTION     0.23     0.27   198.97     3  06:54        0.27
  2I-5                 JUNCTION     0.30     0.36   104.82     4  21:06        0.36
  2I-50                JUNCTION     0.13     0.15   206.72     3  06:53        0.15
  2I-6                 JUNCTION     0.31     0.38   105.34     4  20:53        0.38
  2I-7                 JUNCTION     0.29     0.36   105.72     4  21:00        0.36
  2I-8                 JUNCTION     0.31     0.37   106.16     4  20:54        0.37
  2I-9                 JUNCTION     0.30     0.36   106.53     4  20:51        0.36
  3A-1                 JUNCTION     0.37     0.45    28.84     4  20:03        0.45
  3A-10                JUNCTION     0.45     0.53    30.93     3  08:27        0.53
  3A-10-1              JUNCTION     0.00     0.00    33.40     0  00:00        0.00
  3A-11                JUNCTION     0.44     0.53    31.23     3  08:24        0.52
  3A-12                JUNCTION     0.44     0.53    31.50     3  08:23        0.52
  3A-13                JUNCTION     0.43     0.52    31.95     3  08:21        0.52
  3A-14                JUNCTION     0.43     0.53    32.50     3  08:19        0.52
  3A-15                JUNCTION     0.44     0.53    32.92     3  08:17        0.53
  3A-16                JUNCTION     0.42     0.51    33.27     3  08:15        0.51
  3A-17                JUNCTION     0.35     0.42    33.87     3  08:13        0.41
  3A-18                JUNCTION     0.47     0.56    34.02     3  08:12        0.55
  3A-18-1              JUNCTION     0.05     0.06    44.56     3  08:00        0.06
  3A-18-2              JUNCTION     0.04     0.04    60.16     3  08:00        0.04
  3A-18-3              JUNCTION     0.03     0.03    88.34     3  08:00        0.03
  3A-18-4              JUNCTION     0.10     0.11    89.04     3  08:00        0.11
  3A-18-5              JUNCTION     0.04     0.05   104.93     3  08:00        0.05
  3A-18-6              JUNCTION     0.07     0.08   106.22     3  07:47        0.08
  3A-18-7              JUNCTION     0.06     0.08   107.31     3  07:31        0.08
  3A-18-8              JUNCTION     0.05     0.06   109.93     3  07:30        0.06
  3A-19                JUNCTION     0.26     0.32    34.64     3  08:11        0.32
  3A-19-1              JUNCTION     0.15     0.18    41.98     3  08:11        0.18
  3A-2                 JUNCTION     0.50     0.59    29.26     4  20:01        0.59
  3A-20                JUNCTION     0.19     0.24    43.84     3  08:10        0.23
  3A-21                JUNCTION     0.18     0.21    46.37     3  08:10        0.21
  3A-22                JUNCTION     0.33     0.41    47.75     3  08:10        0.40
  3A-22-1              JUNCTION     0.02     0.02    55.28     3  07:11        0.02
  3A-22-2              JUNCTION     0.02     0.02    85.17     3  07:03        0.02
  3A-23                JUNCTION     0.32     0.39    48.14     3  08:08        0.38
  3A-24                JUNCTION     0.33     0.40    49.23     3  08:07        0.40
  3A-27                JUNCTION     0.16     0.20    80.70     3  08:04        0.19
  3A-28                JUNCTION     0.18     0.22    85.30     3  08:03        0.22
  3A-29                JUNCTION     0.37     0.46    86.22     3  08:03        0.45
  3A-3                 JUNCTION     0.44     0.51    29.58     3  08:34        0.51
  3A-30                JUNCTION     0.34     0.43    86.76     3  08:02        0.42
  3A-31                JUNCTION     0.33     0.42    96.82     3  08:01        0.41
  3A-32                JUNCTION     0.29     0.36    98.12     3  08:00        0.36
  3A-32-1              JUNCTION     0.09     0.25   105.25     3  07:58        0.24
  3A-33                JUNCTION     0.42     0.50    98.91     3  08:12        0.49
  3A-34                JUNCTION     0.39     0.47    99.64     3  08:08        0.47
  3A-35                JUNCTION     0.39     0.47    99.95     3  08:07        0.47
  3A-36                JUNCTION     0.38     0.46   100.19     3  08:05        0.46
  3A-36-1              JUNCTION     0.14     0.17   100.74     3  07:37        0.17
  3A-36-1-1            JUNCTION     0.14     0.18   101.28     3  07:35        0.17
  3A-36-2              JUNCTION     0.14     0.17   101.61     3  07:34        0.17
  3A-36-3              JUNCTION     0.15     0.19   102.39     3  07:31        0.19
  3A-36-4              JUNCTION     0.14     0.18   103.26     3  07:29        0.17
  3A-36-4-1            JUNCTION     0.08     0.09   106.45     3  08:00        0.09
  3A-36-4-2            JUNCTION     0.07     0.08   107.55     3  07:30        0.08
  3A-36-5              JUNCTION     0.12     0.16   103.44     3  07:27        0.15
  3A-36-6              JUNCTION     0.12     0.16   110.06     3  07:26        0.16
  3A-36-7              JUNCTION     0.12     0.19   111.69     4  06:09        0.18
  3A-36-8              JUNCTION     0.10     0.32   114.19     3  23:29        0.29
  3A-37                JUNCTION     0.24     0.28   102.85     3  08:00        0.28
  3A-37-1              JUNCTION     0.11     0.13   107.01     3  07:43        0.13
  3A-37-2              JUNCTION     0.19     0.22   107.22     3  07:27        0.22
  3A-37-2-1            JUNCTION     0.05     0.05   125.06     3  08:00        0.05
  3A-37-3              JUNCTION     0.07     0.08   109.05     3  07:30        0.08
  3A-37-4              JUNCTION     0.03     0.03   129.07     3  07:29        0.03
  3A-38                JUNCTION     0.35     0.41   103.44     3  08:01        0.41
  3A-38-1              JUNCTION     0.00     0.00   106.77     0  00:00        0.00
  3A-39                JUNCTION     0.16     0.19   111.12     3  08:01        0.19
  3A-4                 JUNCTION     0.43     0.51    29.70     3  08:34        0.51
  3A-40                JUNCTION     0.33     0.40   115.16     3  08:00        0.40
  3A-40-1              JUNCTION     0.04     0.05   115.75     4  20:00        0.05
  3A-40-1-1            JUNCTION     0.03     0.04   116.48     4  19:44        0.04
  3A-41                JUNCTION     0.27     0.32   121.40     3  08:00        0.32
  3A-42                JUNCTION     0.27     0.32   122.53     3  08:00        0.32
  3A-43                JUNCTION     0.17     0.20   134.45     3  08:00        0.20
  3A-43-1              JUNCTION     0.05     0.06   138.36     3  08:00        0.06
  3A-44                JUNCTION     0.14     0.17   166.85     3  08:00        0.17
  3A-45                JUNCTION     0.21     0.26   170.27     3  08:01        0.26
  3A-46                JUNCTION     0.26     0.32   171.89     0  00:04        0.31
  3A-46-1              JUNCTION     0.16     0.19   173.39     3  08:00        0.19
  3A-46-10             JUNCTION     0.08     0.10   223.23     3  07:53        0.10
  3A-46-11             JUNCTION     0.12     0.14   224.28     3  07:52        0.14
  3A-46-12             JUNCTION     0.06     0.07   259.57     3  07:50        0.07
  3A-46-13             JUNCTION     0.08     0.09   265.15     3  07:49        0.09
  3A-46-14             JUNCTION     0.05     0.06   277.06     3  07:48        0.06
  3A-46-15             JUNCTION     0.07     0.08   280.45     3  07:48        0.08
  3A-46-16             JUNCTION     0.05     0.06   298.09     3  07:47        0.06
  3A-46-17             JUNCTION     0.05     0.06   315.62     3  08:01        0.06
  3A-46-18             JUNCTION     0.04     0.05   339.91     3  07:46        0.05
  3A-46-19             JUNCTION     0.24     0.24   355.94     3  07:46        0.24
  3A-46-2              JUNCTION     0.17     0.20   174.95     3  07:55        0.20
  3A-46-20             JUNCTION     0.05     0.05   371.79     3  07:45        0.05
  3A-46-21             JUNCTION     0.16     0.19   372.23     3  07:44        0.19
  3A-46-22             JUNCTION     0.11     0.13   372.71     3  07:43        0.13
  3A-46-23             JUNCTION     0.12     0.14   373.47     3  07:42        0.14
  3A-46-24             JUNCTION     0.10     0.12   374.22     3  07:41        0.12
  3A-46-25             JUNCTION     0.03     0.04   422.04     3  07:40        0.04
  3A-46-26             JUNCTION     0.03     0.04   461.69     3  07:39        0.04
  3A-46-26-0           JUNCTION     0.05     0.06   467.53     3  07:38        0.06
  3A-46-27             JUNCTION     0.05     0.06   468.95     3  07:38        0.06
  3A-46-27-0           JUNCTION     0.05     0.06   475.91     3  07:37        0.06
  3A-46-28             JUNCTION     0.06     0.07   479.44     3  07:37        0.07
  3A-46-29             JUNCTION     0.04     0.05   506.62     3  07:36        0.05
  3A-46-29-0           JUNCTION     0.04     0.05   514.05     3  07:36        0.05
  3A-46-3              JUNCTION     0.16     0.19   176.91     3  08:00        0.19
  3A-46-30             JUNCTION     0.05     0.05   521.22     3  07:35        0.05
  3A-46-30-1           JUNCTION     0.03     0.03   545.40     3  07:33        0.03
  3A-46-30-2           JUNCTION     0.06     0.07   546.07     3  07:32        0.07
  3A-46-30-3           JUNCTION     0.06     0.07   559.36     3  07:31        0.07
  3A-46-30-4           JUNCTION     0.06     0.07   560.07     3  07:30        0.07
  3A-46-30-5           JUNCTION     0.04     0.04   563.34     3  07:30        0.04
  3A-46-30-6           JUNCTION     0.03     0.03   575.63     3  07:12        0.03
  3A-46-31             JUNCTION     0.08     0.10   522.55     3  07:35        0.10
  3A-46-32             JUNCTION     0.04     0.04   536.84     3  07:32        0.04
  3A-46-33             JUNCTION     0.08     0.10   538.51     3  07:31        0.10
  3A-46-34             JUNCTION     0.09     0.10   539.01     3  07:30        0.10
  3A-46-4              JUNCTION     0.17     0.20   177.48     3  07:48        0.20
  3A-46-5              JUNCTION     0.15     0.17   178.93     3  08:00        0.17
  3A-46-5-1            JUNCTION     0.03     0.03   219.99     3  07:30        0.03
  3A-46-5-2            JUNCTION     0.03     0.04   238.26     3  07:05        0.04
  3A-46-5-3            JUNCTION     0.03     0.03   262.14     3  07:03        0.03
  3A-46-5-4            JUNCTION     0.05     0.06   262.59     3  07:01        0.06
  3A-46-6              JUNCTION     0.13     0.16   179.86     3  07:56        0.16
  3A-46-7              JUNCTION     0.12     0.14   180.09     3  07:55        0.14
  3A-46-8              JUNCTION     0.07     0.08   198.55     3  07:54        0.08
  3A-46-9              JUNCTION     0.06     0.07   216.69     3  07:53        0.07
  3A-47                JUNCTION     0.13     0.31   181.87     0  00:03        0.16
  3A-48                JUNCTION     0.07     0.26   207.18     0  00:02        0.08
  3A-49                JUNCTION     0.13     0.83   207.94     0  00:02        0.15
  3A-5                 JUNCTION     0.42     0.50    29.90     3  08:33        0.50
  3A-50                JUNCTION     0.07     0.32   232.53     0  00:01        0.08
  3A-51                JUNCTION     0.07     0.33   256.02     0  00:01        0.08
  3A-52                JUNCTION     0.06     0.34   306.33     0  00:01        0.07
  3A-53                JUNCTION     0.06     0.39   335.65     0  00:00        0.07
  3A-54                JUNCTION     0.09    10.99   352.30     0  00:00        0.10
  3A-55                JUNCTION     0.07     3.50   357.80     0  00:00        0.09
  3A-56                JUNCTION     0.05     0.06   419.59     3  08:00        0.06
  3A-57                JUNCTION     0.07     0.09   426.08     3  08:00        0.09
  3A-58                JUNCTION     0.07     0.09   435.57     3  08:00        0.09
  3A-59                JUNCTION     0.06     0.07   446.36     3  08:00        0.07
  3A-6                 JUNCTION     0.42     0.51    29.99     3  08:32        0.50
  3A-60                JUNCTION     0.06     0.07   464.65     3  08:00        0.07
  3A-61                JUNCTION     0.07     0.08   484.63     3  08:00        0.08
  3A-62                JUNCTION     0.06     0.07   498.49     3  08:00        0.07
  3A-63                JUNCTION     0.10     0.12   503.73     3  08:00        0.12
  3A-64                JUNCTION     0.09     0.10   509.39     3  08:00        0.10
  3A-65                JUNCTION     0.06     0.07   520.39     3  08:00        0.07
  3A-66                JUNCTION     0.05     0.06   535.23     3  08:00        0.06
  3A-67                JUNCTION     0.05     0.06   539.26     3  08:00        0.06
  3A-68                JUNCTION     0.04     0.05   591.67     3  08:00        0.05
  3A-69                JUNCTION     0.06     0.07   597.69     3  08:00        0.07
  3A-7                 JUNCTION     0.45     0.54    30.12     3  08:31        0.54
  3A-70                JUNCTION     0.04     0.04   616.22     3  08:00        0.04
  3A-71                JUNCTION     0.09     0.11   617.07     3  08:00        0.11
  3A-72                JUNCTION     0.06     0.07   638.36     3  08:00        0.07
  3A-73                JUNCTION     0.06     0.07   639.04     3  08:03        0.07
  3A-74                JUNCTION     0.05     0.06   639.37     3  07:56        0.06
  3A-75                JUNCTION     0.06     0.07   640.49     3  07:53        0.07
  3A-75-2              JUNCTION     2.17     2.24   633.00     0  05:41        2.24
  3A-75-3              JUNCTION     0.03     0.03   633.14     3  07:30        0.03
  3A-75-4              JUNCTION     0.00     0.00   666.45     0  00:00        0.00
  3A-75-5              JUNCTION     0.00     0.00   669.39     0  00:00        0.00
  3A-8                 JUNCTION     0.44     0.53    30.30     3  08:30        0.52
  3A-9                 JUNCTION     0.40     0.49    30.49     3  08:29        0.48
  3B-1                 JUNCTION     0.09     0.10    50.70     4  19:00        0.10
  3B-10                JUNCTION     0.08     0.12   174.78     0  00:05        0.10
  3B-11                JUNCTION     0.11     0.15   184.24     0  00:05        0.12
  3B-12                JUNCTION     0.21     0.31   184.87     0  00:04        0.24
  3B-13                JUNCTION     0.13     0.21   185.26     0  00:04        0.15
  3B-13-1              JUNCTION     0.14     0.38   186.63     0  00:02        0.16
  3B-13-10             JUNCTION     0.03     0.03   307.73     4  18:38        0.03
  3B-13-2              JUNCTION     0.13     0.53   187.84     0  00:01        0.15
  3B-13-3              JUNCTION     0.10     0.57   188.32     0  00:01        0.12
  3B-13-3-1            JUNCTION     0.08    11.00   209.00     0  00:00        0.09
  3B-13-4              JUNCTION     0.06     1.28   204.37     0  00:00        0.07
  3B-13-5              JUNCTION     0.04     0.04   219.27     4  18:59        0.04
  3B-13-6              JUNCTION     0.03     0.04   235.37     4  18:59        0.04
  3B-13-7              JUNCTION     0.04     0.04   245.54     4  18:44        0.04
  3B-13-8              JUNCTION     0.04     0.04   254.93     4  18:59        0.04
  3B-13-9              JUNCTION     0.03     0.04   274.39     4  18:52        0.04
  3B-14                JUNCTION     0.06     0.07   201.47     4  18:58        0.07
  3B-15                JUNCTION     0.06     0.07   208.45     4  18:58        0.07
  3B-16                JUNCTION     0.06     0.07   218.07     4  18:47        0.07
  3B-17                JUNCTION     0.06     0.07   232.07     4  18:56        0.07
  3B-18                JUNCTION     0.05     0.06   252.96     4  18:55        0.06
  3B-19                JUNCTION     0.04     0.04   263.83     4  18:59        0.04
  3B-2                 JUNCTION     0.11     0.12    87.68     4  19:00        0.12
  3B-20                JUNCTION     0.04     0.04   276.83     4  18:31        0.04
  3B-3                 JUNCTION     0.09     0.11   104.58     4  19:00        0.11
  3B-4                 JUNCTION     0.12     0.13   122.19     4  19:00        0.13
  3B-5                 JUNCTION     0.15     0.17   125.65     4  19:02        0.17
  3B-6                 JUNCTION     0.14     0.16   132.61     4  19:00        0.16
  3B-7                 JUNCTION     0.12     0.14   139.89     4  19:00        0.14
  3B-8                 JUNCTION     0.21     0.25   141.42     4  19:00        0.25
  3B-9                 JUNCTION     0.20     0.25   142.50     0  00:08        0.23
  3C-1                 JUNCTION     0.02     0.03   138.03     4  21:00        0.03
  3D-1                 JUNCTION     0.19     0.23   183.71     3  08:00        0.23
  3D-10                JUNCTION     0.06     0.07   348.00     3  07:42        0.07
  3D-11                JUNCTION     0.07     0.09   367.28     3  07:42        0.09
  3D-12                JUNCTION     0.07     0.08   386.28     3  07:41        0.08
  3D-13                JUNCTION     0.05     0.06   405.35     3  07:41        0.06
  3D-14                JUNCTION     0.06     0.07   420.96     3  08:00        0.07
  3D-15                JUNCTION     0.08     0.09   427.88     3  07:40        0.09
  3D-16                JUNCTION     0.07     0.09   445.49     3  07:40        0.09
  3D-16-1              JUNCTION     0.04     0.05   508.50     3  07:40        0.05
  3D-16-1-1            JUNCTION     0.04     0.05   529.45     3  07:39        0.05
  3D-16-1-2            JUNCTION     0.05     0.06   542.96     3  07:39        0.06
  3D-16-1-2-1          JUNCTION     0.05     0.06   549.87     3  07:38        0.06
  3D-16-1-2-10         JUNCTION     0.04     0.05   627.22     3  07:31        0.05
  3D-16-1-2-11         JUNCTION     0.04     0.04   645.11     3  07:31        0.04
  3D-16-1-2-12         JUNCTION     0.03     0.04   651.73     3  07:30        0.04
  3D-16-1-2-13         JUNCTION     0.04     0.04   664.93     3  08:00        0.04
  3D-16-1-2-14         JUNCTION     0.16     0.18   665.12     3  07:29        0.18
  3D-16-1-2-14-1       JUNCTION     0.06     0.07   665.60     3  07:35        0.07
  3D-16-1-2-14-1-1     JUNCTION     0.04     0.04   669.04     3  07:33        0.04
  3D-16-1-2-15         JUNCTION     2.39     2.45   669.19     2  06:00        2.42
  3D-16-1-2-2          JUNCTION     0.05     0.06   558.18     3  07:38        0.06
  3D-16-1-2-3          JUNCTION     0.05     0.06   559.69     3  07:37        0.06
  3D-16-1-2-3-1        JUNCTION     0.05     0.06   568.76     3  07:37        0.06
  3D-16-1-2-4          JUNCTION     0.12     0.14   569.58     3  07:37        0.14
  3D-16-1-2-5          JUNCTION     0.05     0.06   576.89     3  07:35        0.06
  3D-16-1-2-6          JUNCTION     0.08     0.09   577.45     3  07:34        0.09
  3D-16-1-2-7          JUNCTION     0.08     0.09   578.33     3  07:33        0.09
  3D-16-1-2-8          JUNCTION     0.08     0.10   578.84     3  07:33        0.10
  3D-16-1-2-9          JUNCTION     0.03     0.04   618.92     3  07:32        0.04
  3D-17                JUNCTION     0.09     0.10   445.86     3  07:19        0.10
  3D-18                JUNCTION     0.03     0.03   482.63     3  07:18        0.03
  3D-18-0              JUNCTION     0.15     0.16   482.76     3  07:18        0.16
  3D-19                JUNCTION     0.03     0.04   523.03     3  07:17        0.04
  3D-2                 JUNCTION     0.17     0.20   184.31     3  07:47        0.20
  3D-20                JUNCTION     0.04     0.04   559.54     3  07:16        0.04
  3D-21                JUNCTION     0.06     0.08   560.76     3  08:02        0.08
  3D-22                JUNCTION     0.07     0.08   561.39     3  07:12        0.08
  3D-23                JUNCTION     0.04     0.04   576.04     3  07:13        0.04
  3D-24                JUNCTION     0.03     0.03   610.52     3  07:09        0.03
  3D-25                JUNCTION     0.04     0.04   652.74     3  07:07        0.04
  3D-26                JUNCTION     0.05     0.06   658.33     3  07:02        0.06
  3D-3                 JUNCTION     0.09     0.11   207.31     3  07:47        0.11
  3D-4                 JUNCTION     0.08     0.09   222.13     3  07:45        0.09
  3D-5                 JUNCTION     0.10     0.11   225.95     3  08:00        0.11
  3D-6                 JUNCTION     0.06     0.08   270.84     3  07:45        0.08
  3D-7                 JUNCTION     0.06     0.08   308.76     3  07:44        0.08
  3D-8                 JUNCTION     0.14     0.16   310.81     3  07:44        0.16
  3D-9                 JUNCTION     0.09     0.11   331.48     3  07:44        0.11
  4A-1                 JUNCTION     5.00     5.17    17.22     0  06:27        5.17
  4A-2                 JUNCTION     4.56     4.72    17.21     0  06:27        4.72
  4A-2-1               JUNCTION     4.36     4.51    17.20     0  06:26        4.51
  4A-2-2               JUNCTION     3.52     3.67    17.21     3  15:14        3.67
  4A-2-3               JUNCTION     1.96     2.06    17.21     1  01:45        2.06
  4A-2-4               JUNCTION     0.00     0.00    27.10     0  00:00        0.00
  4A-3                 JUNCTION     3.89     4.05    17.22     2  06:00        4.04
  4A-4                 JUNCTION     3.30     3.46    17.23     2  06:00        3.44
  4A-5                 JUNCTION     2.79     2.93    17.23     2  06:00        2.91
  4A-6                 JUNCTION     1.16     1.27    17.27     2  06:00        1.22
  4A-6-1               JUNCTION     0.04     0.05    17.43     4  20:00        0.05
  5A-1                 JUNCTION     1.98     2.81    70.25     0  06:27        2.80
  5A-1-1               JUNCTION     0.03     0.04    75.17     3  07:30        0.04
  5A-1-2               JUNCTION     0.03     0.03   113.84     3  07:30        0.03
  5A-1-3               JUNCTION     0.07     0.09   115.89     3  07:30        0.09
  5A-2                 JUNCTION     0.02     0.03    98.38     3  07:31        0.03
  5A-3                 JUNCTION     0.10     0.11    99.41     3  07:30        0.11
  5A-4                 JUNCTION     0.06     0.08    99.98     3  07:31        0.08
  5A-5                 JUNCTION     0.04     0.04   107.87     3  07:30        0.04
  5A-6                 JUNCTION     0.04     0.05   122.73     3  07:30        0.05
  5A-7                 JUNCTION     0.04     0.05   129.60     3  07:05        0.05
  8A-1                 JUNCTION     2.85     3.39   105.37     4  19:11        3.38
  8A-2                 JUNCTION     2.14     2.66   105.37     4  19:11        2.65
  8A-2-1               JUNCTION     0.05     0.06   116.01     3  07:30        0.06
  8A-2-2               JUNCTION     0.07     0.08   118.03     3  07:14        0.08
  8A-3                 JUNCTION     0.03     0.04   128.17     3  07:33        0.04
  8A-4                 JUNCTION     0.02     0.02   141.35     4  20:00        0.02
  8A-5                 JUNCTION     0.02     0.02   164.02     4  20:00        0.02
  9A-1                 JUNCTION     0.25     0.30    56.65     4  20:14        0.30
  9A-10                JUNCTION     0.13     0.16   150.16     4  20:05        0.16
  9A-11                JUNCTION     0.09     0.11   182.11     4  20:04        0.11
  9A-11-1              JUNCTION     0.30     0.36   184.96     3  07:04        0.36
  9A-12                JUNCTION     0.26     0.31   187.71     3  07:03        0.31
  9A-13                JUNCTION     0.25     0.30   188.20     3  07:02        0.30
  9A-14                JUNCTION     0.27     0.32   190.15     3  07:01        0.32
  9A-15                JUNCTION     0.27     0.33   193.33     3  07:00        0.33
  9A-16                JUNCTION     0.13     0.16   280.62     3  07:00        0.16
  9A-17                JUNCTION     0.21     0.25   289.88     3  07:00        0.25
  9A-17-0-0            JUNCTION     0.19     0.23   296.76     3  07:00        0.23
  9A-17-0-1            JUNCTION     0.02     0.03   299.67     3  06:21        0.03
  9A-17-0-2            JUNCTION     0.03     0.04   306.26     3  06:12        0.04
  9A-17-1              JUNCTION     0.16     0.19   291.87     3  07:00        0.19
  9A-17-1-0            JUNCTION     0.20     0.24   295.28     3  07:00        0.24
  9A-17-10             JUNCTION     0.06     0.07   348.16     3  06:32        0.07
  9A-17-10-1           JUNCTION     0.07     0.08   349.52     3  06:31        0.08
  9A-17-10-10          JUNCTION     0.02     0.03   419.97     1  06:56        0.03
  9A-17-10-2           JUNCTION     0.09     0.11   350.95     3  06:30        0.11
  9A-17-10-3           JUNCTION     0.03     0.04   361.21     3  06:30        0.04
  9A-17-10-4           JUNCTION     0.03     0.03   387.03     3  06:30        0.03
  9A-17-10-5           JUNCTION     0.04     0.05   387.46     0  07:02        0.05
  9A-17-10-6           JUNCTION     0.03     0.03   389.10     1  06:55        0.03
  9A-17-10-7           JUNCTION     0.02     0.03   392.24     4  06:55        0.03
  9A-17-10-8           JUNCTION     0.02     0.03   395.35     4  06:39        0.03
  9A-17-10-9           JUNCTION     0.02     0.02   413.73     0  06:40        0.02
  9A-17-12             JUNCTION     0.12     0.28   401.57     0  00:03        0.14
  9A-17-12-1           JUNCTION     0.13     0.32   411.51     0  00:03        0.15
  9A-17-12-10          JUNCTION     0.06     0.07   509.72     3  06:30        0.07
  9A-17-12-10-1        JUNCTION     0.03     0.04   552.36     3  06:30        0.04
  9A-17-12-10-2        JUNCTION     0.04     0.05   553.12     3  06:30        0.05
  9A-17-12-10-3        JUNCTION     0.04     0.04   558.36     3  06:30        0.04
  9A-17-12-10-3-1      JUNCTION     0.02     0.03   576.33     3  06:31        0.03
  9A-17-12-10-3-2      JUNCTION     0.03     0.04   594.72     3  06:30        0.04
  9A-17-12-10-3-3      JUNCTION     0.08     0.09   595.17     3  06:30        0.09
  9A-17-12-10-3-4      JUNCTION     0.02     0.03   604.95     0  07:00        0.03
  9A-17-12-2           JUNCTION     0.13     0.31   428.32     0  00:03        0.15
  9A-17-12-3           JUNCTION     0.12     0.30   447.36     0  00:02        0.14
  9A-17-12-4           JUNCTION     0.25     4.68   453.17     0  00:02        0.30
  9A-17-12-4-1         JUNCTION     0.08     0.39   453.26     0  00:01        0.10
  9A-17-12-4-2         JUNCTION     0.11     0.63   461.46     0  00:01        0.13
  9A-17-12-4-3         JUNCTION     0.10     7.65   474.71     0  00:00        0.12
  9A-17-12-4-3-1       JUNCTION     0.09     2.59   471.76     0  00:00        0.11
  9A-17-12-4-3-2       JUNCTION     0.09     0.39   475.18     0  00:00        0.10
  9A-17-12-4-3-3       JUNCTION     0.12     3.39   480.65     0  00:00        0.15
  9A-17-12-4-3-4       JUNCTION     0.10     0.87   487.17     0  00:00        0.12
  9A-17-12-4-3-5       JUNCTION     0.07     0.09   500.88     3  06:26        0.09
  9A-17-12-4-3-6       JUNCTION     0.07     0.09   525.31     3  06:21        0.09
  9A-17-12-4-3-7       JUNCTION     0.09     0.12   533.54     3  06:27        0.12
  9A-17-12-4-4         JUNCTION     0.05     0.06   470.44     3  06:30        0.06
  9A-17-12-4-5         JUNCTION     0.06     0.07   472.44     3  06:30        0.07
  9A-17-12-4-6         JUNCTION     0.05     0.06   482.38     3  06:30        0.06
  9A-17-12-5           JUNCTION     0.12     0.17   454.04     0  00:17        0.14
  9A-17-12-6           JUNCTION     0.11     0.15   467.76     0  00:17        0.13
  9A-17-12-7           JUNCTION     0.13     0.19   471.00     0  00:16        0.15
  9A-17-12-8           JUNCTION     0.11     0.17   486.93     0  00:16        0.13
  9A-17-12-9           JUNCTION     0.37     0.48   499.91     0  00:14        0.39
  9A-17-13-1           JUNCTION     0.05     0.06   393.18     3  07:00        0.06
  9A-17-13-2           JUNCTION     0.04     0.06   397.98     3  07:00        0.06
  9A-17-13-3           JUNCTION     0.04     0.05   417.48     3  07:00        0.05
  9A-17-13-4           JUNCTION     0.04     0.05   431.47     3  07:00        0.05
  9A-17-13-5           JUNCTION     0.06     0.08   432.40     3  07:00        0.08
  9A-17-13-6           JUNCTION    10.47    10.88   433.40     3  07:00       10.88
  9A-17-15             JUNCTION     0.03     0.04   434.09     3  07:00        0.04
  9A-17-16             JUNCTION     0.04     0.04   447.71     3  07:00        0.04
  9A-17-17             JUNCTION     0.03     0.04   473.96     3  07:00        0.04
  9A-17-18             JUNCTION     0.03     0.04   510.18     3  07:00        0.04
  9A-17-19             JUNCTION     0.04     0.05   533.84     3  07:00        0.05
  9A-17-2              JUNCTION     0.21     0.25   299.60     3  07:00        0.25
  9A-17-20             JUNCTION     0.03     0.04   548.15     3  07:00        0.04
  9A-17-20-1-1         JUNCTION     0.01     0.02   557.83     0  07:00        0.02
  9A-17-20-1-2         JUNCTION     0.01     0.02   576.70     2  07:00        0.02
  9A-17-20-1-3         JUNCTION     0.09     0.10   576.75     0  07:00        0.10
  9A-17-20-1-4         JUNCTION     0.02     0.02   581.41     0  06:15        0.02
  9A-17-3              JUNCTION     0.16     0.19   303.60     3  07:00        0.19
  9A-17-3-0            JUNCTION     0.23     0.27   307.27     3  07:00        0.27
  9A-17-4              JUNCTION     0.22     0.26   312.14     3  07:00        0.26
  9A-17-5              JUNCTION     0.29     0.35   312.98     3  07:00        0.35
  9A-17-6              JUNCTION     0.29     0.35   313.66     3  07:00        0.35
  9A-17-7              JUNCTION     0.30     0.36   314.91     3  07:00        0.36
  9A-17-7-0-1          JUNCTION     0.20     0.24   317.91     4  20:00        0.24
  9A-17-7-0-10         JUNCTION     0.14     0.31   378.34     0  00:04        0.17
  9A-17-7-0-11         JUNCTION     0.15     0.31   384.03     0  00:03        0.18
  9A-17-7-0-2          JUNCTION     0.22     0.26   319.54     4  20:01        0.26
  9A-17-7-0-3          JUNCTION     0.22     0.26   321.11     4  20:00        0.26
  9A-17-7-0-4          JUNCTION     0.20     0.24   324.81     4  20:00        0.24
  9A-17-7-0-5          JUNCTION     0.14     0.19   336.09     0  00:10        0.17
  9A-17-7-0-6          JUNCTION     0.12     0.17   343.07     0  00:09        0.15
  9A-17-7-0-7          JUNCTION     3.63     3.69   353.50     0  00:09        3.66
  9A-17-7-0-8          JUNCTION     0.14     0.28   358.03     0  00:05        0.17
  9A-17-7-0-9          JUNCTION     0.14     0.29   374.25     0  00:04        0.17
  9A-17-7-50           JUNCTION     0.14     0.27   355.78     0  00:06        0.17
  9A-17-8              JUNCTION     0.04     0.05   339.98     3  06:38        0.05
  9A-17-9              JUNCTION     0.10     0.13   341.81     3  06:37        0.13
  9A-18                JUNCTION     0.08     0.10   297.47     3  06:51        0.10
  9A-19                JUNCTION     0.09     0.11   303.47     3  06:49        0.11
  9A-2                 JUNCTION     0.45     0.55    59.19     4  20:13        0.55
  9A-20                JUNCTION     0.11     0.14   305.46     3  06:46        0.14
  9A-20-1              JUNCTION     0.05     0.06   311.14     3  06:37        0.06
  9A-20-2              JUNCTION     0.06     0.07   313.28     3  06:22        0.07
  9A-20-3              JUNCTION     0.06     0.07   315.63     3  06:30        0.07
  9A-20-4              JUNCTION     0.04     0.04   325.13     3  06:30        0.04
  9A-20-4-1            JUNCTION     0.00     0.00   326.99     0  00:00        0.00
  9A-20-4-2            JUNCTION     0.00     0.00   328.18     0  00:00        0.00
  9A-3                 JUNCTION     0.12     0.14    75.14     4  20:10        0.14
  9A-3-0               JUNCTION     0.35     0.43    65.05     4  20:12        0.43
  9A-4                 JUNCTION     0.20     0.25    77.05     4  20:10        0.25
  9A-5                 JUNCTION     0.29     0.36    80.66     4  20:09        0.36
  9A-6                 JUNCTION     0.26     0.32    81.12     4  20:08        0.32
  9A-7                 JUNCTION     0.28     0.35    83.78     4  20:07        0.34
  9A-8                 JUNCTION     0.28     0.35    85.22     4  20:06        0.34
  9A-9                 JUNCTION     0.13     0.16   125.30     4  20:05        0.16
  9B-10                JUNCTION     0.33     0.40   136.12     3  07:13        0.39
  9B-11-1              JUNCTION     0.36     0.44   137.38     3  07:13        0.43
  9B-11-2              JUNCTION     0.36     0.43   138.33     3  07:11        0.43
  9B-12                JUNCTION     0.34     0.41   138.62     3  07:10        0.41
  9B-13                JUNCTION     0.39     0.49   139.97     3  07:10        0.48
  9B-13-10             JUNCTION     0.26     0.40   148.30     2  07:00        0.38
  9B-13-11             JUNCTION     0.11     0.23   151.73     2  06:59        0.19
  9B-13-12             JUNCTION     0.08     0.11   158.11     4  20:08        0.11
  9B-13-13             JUNCTION     0.10     0.14   162.93     4  20:59        0.14
  9B-13-14             JUNCTION     0.08     0.11   178.46     4  20:58        0.11
  9B-13-15             JUNCTION     0.06     0.09   180.54     4  20:55        0.09
  9B-13-16             JUNCTION     0.08     0.12   186.47     4  20:55        0.11
  9B-13-16-1           JUNCTION     0.07     0.12   186.69     4  20:54        0.11
  9B-13-16-2           JUNCTION     0.09     0.14   187.60     4  20:53        0.14
  9B-13-16-3           JUNCTION     0.09     0.16   188.43     4  20:51        0.16
  9B-13-16-4           JUNCTION     0.09     0.16   190.04     4  20:48        0.16
  9B-13-16-5           JUNCTION     0.09     0.19   190.74     4  02:42        0.18
  9B-13-16-5-1         JUNCTION     0.05     0.26   191.74     2  01:05        0.16
  9B-13-2              JUNCTION     0.17     0.22   140.37     2  07:14        0.22
  9B-13-3              JUNCTION     0.16     0.21   141.69     2  07:13        0.20
  9B-13-4              JUNCTION     0.19     0.25   143.35     2  07:11        0.24
  9B-13-5              JUNCTION     0.18     0.24   144.44     2  07:09        0.23
  9B-13-6              JUNCTION     0.18     0.24   145.45     2  07:08        0.23
  9B-13-7              JUNCTION     0.23     0.31   145.91     2  07:06        0.30
[...]
  784                     1.00   0.00  0.00  0.00  0.00  0.00  0.00  1.00  0.00  0.00
  793                     1.93   0.00  0.00  0.00  0.00  1.00  0.00  0.00  0.99  0.00
  794                     1.00   0.00  0.00  0.00  0.00  1.00  0.00  0.00  0.00  0.00
  795                     9.30   0.00  0.00  0.00  0.00  1.00  0.00  0.00  0.00  0.00
  796                     2.22   0.00  0.00  0.00  0.00  1.00  0.00  0.00  1.00  0.00
  797                     1.05   0.00  0.00  0.00  0.00  1.00  0.00  0.00  1.00  0.00
  798                     1.00   0.00  0.00  0.00  0.00  1.00  0.00  0.00  0.80  0.00
  799                     1.00   0.00  0.00  0.00  0.00  1.00  0.00  0.00  0.00  0.00
  8                       1.00   0.00  0.00  0.00  0.00  1.00  0.00  0.00  1.00  0.00
  800                     1.91   0.00  0.00  0.00  0.00  1.00  0.00  0.00  1.00  0.00
  801                     1.00   0.00  0.00  0.00  0.00  1.00  0.00  0.00  0.00  0.00
  804                     2.17   0.00  0.00  0.00  0.00  0.00  0.00  1.00  0.00  0.00
  805                     7.38   0.00  0.00  0.00  0.00  0.33  0.00  0.67  0.26  0.00
  807                     1.00   0.00  0.00  0.00  0.00  0.00  0.00  1.00  0.00  0.00
  808                     2.50   0.00  0.00  0.00  0.00  0.00  0.00  1.00  0.00  0.00
  810                     1.00   0.00  0.00  0.00  0.00  0.00  0.00  1.00  0.00  0.00
  811                     2.52   0.00  0.00  0.00  0.00  0.00  0.00  1.00  0.00  0.00
  812                    11.18   0.00  0.00  0.00  0.00  0.00  0.00  1.00  0.00  0.00
  813                     4.51   0.00  0.00  0.00  0.00  0.00  0.00  1.00  0.00  0.00
  814                    19.31   0.00  0.00  0.00  0.00  1.00  0.00  0.00  1.00  0.00
  816                     1.00   0.00  0.00  0.00  0.01  0.99  0.00  0.00  0.00  0.00
  817                     1.00   0.00  0.00  0.00  1.00  0.00  0.00  0.00  1.00  0.00
  818                     1.00   0.00  0.00  0.00  1.00  0.00  0.00  0.00  0.00  0.00
  819                     1.00   0.00  0.00  0.00  1.00  0.00  0.00  0.00  0.01  0.00
  82                      1.00   0.00  0.00  0.00  0.00  1.00  0.00  0.00  0.00  0.00
  820                     1.00   0.00  0.00  0.00  1.00  0.00  0.00  0.00  0.99  0.00
  821                     1.00   0.00  0.00  0.00  1.00  0.00  0.00  0.00  0.00  0.00
  822                     1.00   0.00  0.00  0.00  1.00  0.00  0.00  0.00  1.00  0.00
  823                     1.00   0.00  0.00  0.00  1.00  0.00  0.00  0.00  0.00  0.00
  824                     1.00   0.00  0.00  0.00  1.00  0.00  0.00  0.00  1.00  0.00
  825                     1.00   0.00  0.00  0.00  0.99  0.01  0.00  0.00  1.00  0.00
  826                     1.00   0.00  0.00  0.00  0.00  0.00  0.00  1.00  0.00  0.00
  827                     1.00   0.00  0.00  0.00  0.00  1.00  0.00  0.00  1.00  0.00
  83                      1.00   0.00  0.00  0.00  1.00  0.00  0.00  0.00  1.00  0.00
  831                     1.33   0.00  0.00  0.00  0.00  1.00  0.00  0.00  0.00  0.00
  832                     1.00   0.00  0.00  0.00  0.00  1.00  0.00  0.00  0.00  0.00
  833                     1.00   0.00  0.00  0.00  0.00  1.00  0.00  0.00  1.00  0.00
  837                     1.00   0.00  0.00  0.00  0.00  1.00  0.00  0.00  0.00  0.00
  838                     1.38   0.00  0.00  0.00  0.00  1.00  0.00  0.00  0.00  0.00
  841                     1.00   0.00  0.00  0.00  0.00  1.00  0.00  0.00  1.00  0.00
  842                     1.00   0.00  0.00  0.00  0.00  1.00  0.00  0.00  1.00  0.00
  843                     1.00   0.00  0.00  0.00  0.00  1.00  0.00  0.00  0.00  0.00
  844                     1.00   0.00  0.00  0.00  0.00  1.00  0.00  0.00  0.00  0.00
  845                     1.00   0.00  0.00  0.00  0.00  1.00  0.00  0.00  0.00  0.00
  846                     1.00   0.00  0.00  0.00  0.00  1.00  0.00  0.00  1.00  0.00
  847                     1.00   0.00  0.00  0.00  0.00  1.00  0.00  0.00  1.00  0.00
  848                     1.00   0.00  0.00  0.00  0.00  1.00  0.00  0.00  1.00  0.00
  849                     1.00   0.00  0.00  0.00  0.00  1.00  0.00  0.00  0.00  0.00
  850                     1.00   0.00  0.00  0.00  0.00  1.00  0.00  0.00  1.00  0.00
  851                     1.00   0.00  0.00  0.00  0.00  1.00  0.00  0.00  1.00  0.00
  852                     1.00   0.00  0.00  0.00  0.00  1.00  0.00  0.00  0.00  0.00
  853                     1.00   0.00  0.00  0.00  0.00  1.00  0.00  0.00  1.00  0.00
  854                     1.00   0.00  0.00  0.00  0.00  1.00  0.00  0.00  0.00  0.00
  855                     1.00   0.00  0.00  0.00  0.00  1.00  0.00  0.00  1.00  0.00
  856                     1.00   0.00  0.00  0.00  0.00  1.00  0.00  0.00  0.00  0.00
  891                     1.00   0.00  0.00  0.00  0.00  1.00  0.00  0.00  0.01  0.00
  892                     1.00   0.00  0.00  0.00  0.00  1.00  0.00  0.00  0.00  0.00
  893                     2.38   0.00  0.00  0.00  0.82  0.17  0.00  0.00  1.00  0.00
  895                     1.86   0.00  0.00  0.00  0.00  1.00  0.00  0.00  1.00  0.00
  896                     1.44   0.00  0.00  0.00  0.00  1.00  0.00  0.00  1.00  0.00
  9                       1.43   0.00  0.00  0.00  0.00  1.00  0.00  0.00  0.00  0.00
  903                     1.61   0.00  0.00  0.00  0.00  1.00  0.00  0.00  0.00  0.00
  906                     1.00   0.00  0.00  0.00  0.00  1.00  0.00  0.00  0.00  0.00
  907                     3.07   0.00  0.00  0.00  0.00  1.00  0.00  0.00  1.00  0.00
  91                      1.00   0.00  0.00  0.00  1.00  0.00  0.00  0.00  0.99  0.00
  911                     2.56   0.00  0.00  0.00  0.00  1.00  0.00  0.00  1.00  0.00
  912                     1.44   0.00  0.00  0.00  0.00  1.00  0.00  0.00  1.00  0.00
  913                     1.00   0.00  0.00  0.00  0.00  1.00  0.00  0.00  1.00  0.00
  92                      1.00   0.00  0.00  0.00  1.00  0.00  0.00  0.00  0.38  0.00
  925                     1.00   0.00  0.00  0.00  0.00  1.00  0.00  0.00  0.00  0.00
  926                     1.00   0.00  0.00  0.00  0.00  1.00  0.00  0.00  0.00  0.00
  927                     1.64   0.00  0.00  0.00  0.00  1.00  0.00  0.00  1.00  0.00
  93                      1.00   0.00  0.00  0.00  1.00  0.00  0.00  0.00  0.03  0.00
  930                     1.58   0.00  0.00  0.00  0.00  1.00  0.00  0.00  0.00  0.00
  931                     1.00   0.00  0.00  0.00  0.00  1.00  0.00  0.00  1.00  0.00
  932                     3.12   0.00  0.00  0.00  0.00  0.00  0.00  1.00  0.00  0.00
  933                     1.00   0.00  0.00  0.00  0.76  0.00  0.00  0.24  0.25  0.00
  934                     1.00   0.00  0.00  0.00  1.00  0.00  0.00  0.00  1.00  0.00
  938                     1.00   0.00  0.00  0.00  0.00  0.00  0.00  1.00  0.00  0.00
  939                     1.00   0.00  0.00  0.00  0.00  1.00  0.00  0.00  1.00  0.00
  940                     1.00   0.00  0.00  0.00  0.00  1.00  0.00  0.00  0.00  0.00
  941                     1.00   0.00  0.00  0.00  0.00  0.00  0.00  1.00  0.00  0.00
  942                     1.00   0.00  0.00  0.00  0.00  0.00  0.00  1.00  0.00  0.00
  943                     3.06   0.00  0.00  0.00  0.00  0.00  0.00  1.00  0.00  0.00
  944                     1.00   0.00  0.00  0.00  0.00  0.00  0.00  1.00  0.00  0.00
  945                     1.00   0.00  0.00  0.00  0.00  0.00  0.00  1.00  0.00  0.00
  946                     1.00   0.00  0.00  0.00  0.00  0.00  0.00  1.00  0.00  0.00
  95                      3.90   0.00  0.00  0.00  1.00  0.00  0.00  0.00  0.00  0.00
  967                     1.00   0.00  0.00  0.00  1.00  0.00  0.00  0.00  0.11  0.00
  968                     1.00   0.00  0.00  0.00  1.00  0.00  0.00  0.00  0.00  0.00
  97                      1.00   0.00  0.05  0.00  0.93  0.02  0.00  0.00  0.91  0.00
  970                     2.76   0.00  0.00  0.00  0.00  0.00  1.00  0.00  0.00  0.00
  971                     1.00   0.00  0.00  0.00  0.00  0.00  0.00  1.00  0.00  0.00
  972                     1.00   0.00  0.00  0.00  0.00  0.00  0.00  1.00  0.00  0.00
  973                     2.11   0.00  0.00  0.00  0.00  0.00  0.00  1.00  0.00  0.00
  974                     1.00   0.00  0.00  0.00  0.00  0.00  0.00  1.00  0.00  0.00
  975                     1.00   0.00  0.00  0.00  0.00  0.00  0.00  1.00  0.00  0.00
  976                     1.00   0.00  0.00  0.00  0.00  0.00  0.00  1.00  0.00  0.00
  977                     1.00   0.00  0.00  0.00  0.00  0.00  0.00  1.00  0.00  0.00
  978                     1.00   0.00  0.00  0.00  0.00  0.00  0.00  1.00  0.00  0.00
  979                     1.08   0.00  0.00  0.00  0.00  0.00  0.00  1.00  0.00  0.00
  98                      1.00   0.00  0.00  0.00  0.97  0.03  0.00  0.00  0.63  0.00
  980                     1.00   0.00  0.00  0.00  0.00  0.00  0.00  1.00  0.00  0.00
  981                     1.00   0.00  0.00  0.00  0.00  0.00  0.00  1.00  0.00  0.00
  982                     2.29   0.00  0.00  0.00  0.00  0.00  0.00  1.00  0.00  0.00
  983                     1.22   0.00  0.00  0.00  0.00  0.00  0.00  1.00  0.00  0.00
  988                     2.76   0.00  0.00  0.00  1.00  0.00  0.00  0.00  1.00  0.00
  99                      1.00   0.00  0.00  0.00  1.00  0.00  0.00  0.00  0.87  0.00
  991                     1.00   0.00  0.00  0.00  0.00  0.00  0.00  1.00  0.00  0.00
  992                     1.91   0.00  0.00  0.00  0.00  0.00  0.00  1.00  0.00  0.00
  993                     1.00   0.00  0.00  0.00  0.00  0.00  0.00  1.00  0.00  0.00
  994                     1.74   0.00  0.00  0.00  0.00  1.00  0.00  0.00  1.00  0.00
  999                     1.00   0.00  0.00  0.00  0.00  1.00  0.00  0.00  0.01  0.00
  
  
  *************************
  Conduit Surcharge Summary
  *************************
  
  ----------------------------------------------------------------------------
                                                           Hours        Hours 
                         --------- Hours Full --------   Above Full   Capacity
  Conduit                Both Ends  Upstream  Dnstream   Normal Flow   Limited
  ----------------------------------------------------------------------------
  1102                        0.01      0.01      0.03      0.01         0.01
  1104                        0.01      0.01      0.01      0.01         0.01
  1105                        0.01      0.01      0.01      0.01         0.01
  1106                        0.01      0.01      0.02      0.02         0.01
  1107                        0.01      0.01      0.01      0.01         0.01
  1108                        0.01      0.01      0.01      0.01         0.01
  1109                        0.01      0.03      0.01      0.03         0.01
  1110                        0.01      0.01      0.01      0.01         0.01
  113                         0.01      0.01    117.75      0.01         0.01
  1133                        0.01      0.01    118.90      0.01         0.01
  1191                        0.01      0.01      0.01      0.01         0.01
  1192                        0.01      0.01      0.01      0.01         0.01
  1235                        0.01      0.01      0.01      0.01         0.01
  1265                        0.01      0.01    117.86      0.01         0.01
  128                       117.75    117.75    118.38      0.01         0.01
  129                         0.01      0.01    115.84      3.60         0.01
  14                          0.01      0.01      0.02      0.01         0.01
  15                          0.01      0.02      0.04      0.01         0.01
  1584                        0.01      0.01    114.38      0.01         0.01
  1585                      114.38    114.38    117.70      0.01         0.01
  1587                        0.01      0.01    114.79      0.01         0.01
  1631                        0.01      0.01    117.33      0.01         0.01
  1711                      117.57    117.57    118.04      0.01         0.01
  1716                        0.01      0.01    117.18      0.01         0.01
  179                         0.01      0.01      0.01      0.01         0.01
  180                         0.01      0.01      0.01      0.01         0.01
  194                         0.01      0.01      0.03      0.01         0.01
  1957                        0.01      0.01      0.01      0.01         0.01
  21                          0.01      0.04      0.01      0.05         0.01
  2217                        0.01      0.01    117.16      0.01         0.01
  2222                        0.01      0.01    112.62      0.01         0.01
  2223                      113.82    113.82    114.56      0.01         0.01
  2224                      114.56    114.56    115.42      0.01         0.01
  2225                      115.42    115.42    116.69      0.01         0.01
  2226                      116.69    116.69    117.69      0.01         0.01
  2230                      113.33    113.33    113.71      0.01         0.01
  2231                      114.74    114.74    116.06      0.01         0.01
  2232                      116.33    116.33    116.69      0.01         0.01
  2262                        0.01      0.01    116.45      0.01         0.01
  2275                        0.01      0.01    116.45      0.01         0.01
  2335                        0.01      0.01    117.69      3.83         0.01
  2341                      117.29    117.29    117.92      0.01         1.66
  2342                      117.92    117.92    118.18      0.01         2.18
  2353                        0.01      0.01      0.04      0.01         0.01
  2354                        0.01      0.01      0.05      0.01         0.01
  2355                        0.01      0.01      0.07      0.01         0.01
  2356                        0.01      0.01      0.01      0.01         0.01
  2357                        0.01      0.01      0.01      0.01         0.01
  2450                        0.01      0.01      0.01      0.01         0.01
  2451                        0.01      0.01      0.01      0.01         0.01
  2455                        0.01      0.01      0.01      0.01         0.01
  2579                      116.45    116.45    118.24      0.01         0.01
  2580                        0.01      0.01    115.08      6.81         0.01
  2629                      112.69    112.69    113.73      0.01         0.01
  2648                      117.69    117.69    118.30      0.01         0.01
  2777                        0.01      0.01    118.47      0.01         0.01
  2778                        0.01      0.01     86.72      0.01         0.01
  2819                        0.01      0.01      0.02      0.01         0.01
  2820                        0.01      0.01      0.02      0.01         0.01
  2821                        0.01      0.01      0.01      0.01         0.01
  2822                        0.01      0.01      0.01      0.01         0.01
  2823                        0.01      0.01      0.01      0.01         0.01
  2997                        0.01      0.01      0.01      0.01         0.01
  2998                        0.01      0.01      0.01      0.01         0.01
  3187                        0.01      0.01      0.01      0.01         0.01
  3374                        0.01      0.01     73.42      0.01         0.01
  3419                        0.01      0.01      0.01     88.82         0.01
  3454                        0.01      0.01     16.90      0.01         0.01
  3517                        0.01      0.01      0.01      0.01         0.01
  3624                        0.01      0.01    117.43      0.01         0.01
  398                         0.01      0.01    111.77      0.91         0.01
  4                           0.01      0.01      0.01      0.01         0.01
  5                           0.01      0.01      0.01      0.01         0.01
  6                           0.01      0.01      0.01      0.01         0.01
  619                         0.01      0.01      0.01      0.01         0.01
  620                         0.01      0.04      0.01      0.05         0.01
  7                           0.01      0.02      0.02      0.02         0.01
  8                           0.01      0.02      0.02      0.01         0.01
  9                           0.01      0.02      0.01      0.01         0.01
  92                          0.01      0.01     90.36      0.01         0.01
  93                         90.34     90.34    115.17      0.01         0.01
  95                        115.08    115.17    117.49      0.01         0.09
  978                         0.01      0.01      0.01      0.01         0.01
  979                         0.01      0.01      0.01      0.01         0.01
  
  
  ***************
  Pumping Summary
  ***************
  
  ---------------------------------------------------------------------------------------------------------
                                                  Min       Avg       Max     Total     Power    % Time Off
                        Percent   Number of      Flow      Flow      Flow    Volume     Usage    Pump Curve
  Pump                 Utilized   Start-Ups       GPM       GPM       GPM  10^6 gal     Kw-hr    Low   High
  ---------------------------------------------------------------------------------------------------------
  ARBOR_PS                 0.00           0      0.00      0.00      0.00     0.000      0.00    0.0    0.0
  ARBOR_PS_LAG             5.73         322      0.00    300.00    300.00     0.123     43.78    0.0  100.0
  BOLTON_PS1               0.00           0      0.00      0.00      0.00     0.000      0.00    0.0    0.0
  BOLTON_PS2              10.81        1495      0.00   4000.00   4000.00     3.088     66.85    0.0  100.0
  BOLTON_PS3               0.00           0      0.00      0.00      0.00     0.000      0.00    0.0    0.0
  CALAROGA_PS              0.00           0      0.00      0.00      0.00     0.000      0.00    0.0    0.0
  CEDAROAK_PS              0.00           0      0.00      0.00      0.00     0.000      0.00    0.0    0.0
  CEDAROAK_PS_LAG          3.19         367      0.00    425.00    425.00     0.097     18.54    0.0  100.0
  JOHNSON_PS               0.00           0      0.00      0.00      0.00     0.000      0.00    0.0    0.0
  JOHNSON_PS_LAG           2.54         458      0.00    539.00    539.00     0.098    127.99    0.0  100.0
  MAPLETON_PS1            22.53        3920      0.00   1777.00   1777.00     2.859     41.72    0.0  100.0
  MAPLETON_PS2             0.82         223      0.00   2195.00   2195.00     0.128      2.37    0.0  100.0
  MAPLETON_PS3             0.00           0      0.00      0.00      0.00     0.000      0.00    0.0    0.0
  MARYLHURST_PS            0.00           0      0.00      0.00      0.00     0.000      0.00    0.0    0.0
  MARYLHURST_PS_LAG        0.00           0      0.00      0.00      0.00     0.000      0.00    0.0    0.0
  RIVERHEIGHTS_PS          0.00           0      0.00      0.00      0.00     0.000      0.00    0.0    0.0
  RIVERHEIGHTS_PS_LAG      0.59         157      0.00   1198.00   1198.00     0.050    160.25    0.0  100.0
  RIVERST_PS1              0.00           0      0.00      0.00      0.00     0.000      0.00    0.0    0.0
  RIVERST_PS2              0.00           0      0.00      0.00      0.00     0.000      0.00    0.0    0.0
  RIVERST_PS3             13.45         798      0.00   1800.00   1800.00     1.728     37.74    0.0  100.0
  WILLAMETTE_PS1          27.49        8698      0.00   2500.00   2500.00     4.906    238.07    0.0  100.0
  WILLAMETTE_PS2          14.98        5641      0.00   2500.00   2500.00     2.673    131.41    0.0  100.0
  WILLAMETTE_PS3           0.00           0      0.00      0.00      0.00     0.000      0.00    0.0    0.0
  

  Analysis begun on:  Fri Nov 29 09:30:41 2019
  Analysis ended on:  Fri Nov 29 09:31:52 2019
  Total elapsed time: 00:01:11