
  EPA STORM WATER MANAGEMENT MODEL - VERSION 5.1 (Build 5.1.013)
  --------------------------------------------------------------

  WARNING 04: minimum elevation drop used for Conduit SEW-0137
  WARNING 04: minimum elevation drop used for Conduit SEW-0212
  WARNING 04: minimum elevation drop used for Conduit SEW-0214
  WARNING 04: minimum elevation drop used for Conduit SEW-0420
  WARNING 04: minimum elevation drop used for Conduit SEW-0473
  WARNING 04: minimum elevation drop used for Conduit SEW-0532
  WARNING 04: minimum elevation drop used for Conduit SEW-0571
  WARNING 04: minimum elevation drop used for Conduit SEW-0663
  WARNING 04: minimum elevation drop used for Conduit SEW-0670
  WARNING 04: minimum elevation drop used for Conduit SEW-0746
  WARNING 04: minimum elevation drop used for Conduit SEW-0847
  WARNING 04: minimum elevation drop used for Conduit SEW-0848
  WARNING 04: minimum elevation drop used for Conduit SEW-0852
  WARNING 04: minimum elevation drop used for Conduit SEW-0919
  WARNING 04: minimum elevation drop used for Conduit SEW-1207
  WARNING 02: maximum depth increased for Node KWL_N_0067
  
  *********************************************************
  NOTE: The summary statistics displayed in this report are
  based on results found at every computational time step,  
  not just on results from each reporting time step.
  *********************************************************
  
  ****************
  Analysis Options
  ****************
  Flow Units ............... LPS
  Process Models:
    Rainfall/Runoff ........ NO
    RDII ................... NO
    Snowmelt ............... NO
    Groundwater ............ NO
    Flow Routing ........... YES
    Ponding Allowed ........ NO
    Water Quality .......... NO
  Flow Routing Method ...... DYNWAVE
  Surcharge Method ......... EXTRAN
  Starting Date ............ 01/01/2002 00:00:00
  Ending Date .............. 01/01/2002 04:00:00
  Antecedent Dry Days ...... 5.0
  Report Time Step ......... 00:05:00
  Routing Time Step ........ 10.00 sec
  Variable Time Step ....... YES
  Maximum Trials ........... 8
  Number of Threads ........ 7
  Head Tolerance ........... 0.000100 m
  
  
  **************************        Volume        Volume
  Flow Routing Continuity        hectare-m      10^6 ltr
  **************************     ---------     ---------
  Dry Weather Inflow .......         0.000         0.000
  Wet Weather Inflow .......         0.000         0.000
  Groundwater Inflow .......         0.000         0.000
  RDII Inflow ..............         0.000         0.000
  External Inflow ..........         0.000         0.000
  External Outflow .........         0.000         0.000
  Flooding Loss ............         0.000         0.000
  Evaporation Loss .........         0.000         0.000
  Exfiltration Loss ........         0.000         0.000
  Initial Stored Volume ....         0.000         0.000
  Final Stored Volume ......         0.000         0.000
  Continuity Error (%) .....         0.000
  
  
  ***************************
  Time-Step Critical Elements
  ***************************
  None
  
  
  ********************************
  Highest Flow Instability Indexes
  ********************************
  All links are stable.
  
  
  ******************
  Node Depth Summary
  ******************
  
  ---------------------------------------------------------------------------------
                                 Average  Maximum  Maximum  Time of Max    Reported
                                   Depth    Depth      HGL   Occurrence   Max Depth
  Node                 Type       Meters   Meters   Meters  days hr:min      Meters
  ---------------------------------------------------------------------------------
  KWL_N_0001           JUNCTION  -nan(ind)     0.00   665.72     0  00:00        0.00
  KWL_N_0002           JUNCTION  -nan(ind)     0.00   665.27     0  00:00        0.00
  KWL_N_0003           JUNCTION  -nan(ind)     0.00   659.90     0  00:00        0.00
  KWL_N_0004           JUNCTION  -nan(ind)     0.00   668.22     0  00:00        0.00
  KWL_N_0005           JUNCTION  -nan(ind)     0.00   665.75     0  00:00        0.00
  KWL_N_0006           JUNCTION  -nan(ind)     0.00   666.59     0  00:00        0.00
  KWL_N_0007           JUNCTION  -nan(ind)     0.00   661.66     0  00:00        0.00
  KWL_N_0008           JUNCTION  -nan(ind)     0.00   658.31     0  00:00        0.00
  KWL_N_0009           JUNCTION  -nan(ind)     0.00   664.79     0  00:00        0.00
  KWL_N_0010           JUNCTION  -nan(ind)     0.00   665.35     0  00:00        0.00
  KWL_N_0011           JUNCTION  -nan(ind)     0.00   665.01     0  00:00        0.00
  KWL_N_0012           JUNCTION  -nan(ind)     0.00   700.87     0  00:00        0.00
  KWL_N_0013           JUNCTION  -nan(ind)     0.00   698.88     0  00:00        0.00
  KWL_N_0014           JUNCTION  -nan(ind)     0.00   695.30     0  00:00        0.00
  KWL_N_0016           JUNCTION  -nan(ind)     0.00   661.76     0  00:00        0.00
  KWL_N_0017           JUNCTION  -nan(ind)     0.00   661.65     0  00:00        0.00
  KWL_N_0018           JUNCTION  -nan(ind)     0.00   666.25     0  00:00        0.00
  KWL_N_0019           JUNCTION  -nan(ind)     0.00   664.80     0  00:00        0.00
  KWL_N_0020           JUNCTION  -nan(ind)     0.00   664.41     0  00:00        0.00
  KWL_N_0021           JUNCTION  -nan(ind)     0.00   663.17     0  00:00        0.00
  KWL_N_0022           JUNCTION  -nan(ind)     0.00   709.47     0  00:00        0.00
  KWL_N_0023           JUNCTION  -nan(ind)     0.00   709.01     0  00:00        0.00
  KWL_N_0024           JUNCTION  -nan(ind)     0.00   717.53     0  00:00        0.00
  KWL_N_0025           JUNCTION  -nan(ind)     0.00   709.07     0  00:00        0.00
  KWL_N_0026           JUNCTION  -nan(ind)     0.00   715.78     0  00:00        0.00
  KWL_N_0027           JUNCTION  -nan(ind)     0.00   717.84     0  00:00        0.00
  KWL_N_0028           JUNCTION  -nan(ind)     0.00   719.30     0  00:00        0.00
  KWL_N_0029           JUNCTION  -nan(ind)     0.00   704.32     0  00:00        0.00
  KWL_N_0031           JUNCTION  -nan(ind)     0.00   704.10     0  00:00        0.00
  KWL_N_0033           JUNCTION  -nan(ind)     0.00   698.34     0  00:00        0.00
  KWL_N_0034           JUNCTION  -nan(ind)     0.00   694.66     0  00:00        0.00
  KWL_N_0035           JUNCTION  -nan(ind)     0.00   693.00     0  00:00        0.00
  KWL_N_0036           JUNCTION  -nan(ind)     0.00   656.39     0  00:00        0.00
  KWL_N_0037           JUNCTION  -nan(ind)     0.00   656.02     0  00:00        0.00
  KWL_N_0038           JUNCTION  -nan(ind)     0.00   655.64     0  00:00        0.00
  KWL_N_0039           JUNCTION  -nan(ind)     0.00   654.79     0  00:00        0.00
  KWL_N_0040           JUNCTION  -nan(ind)     0.00   664.94     0  00:00        0.00
  KWL_N_0041           JUNCTION  -nan(ind)     0.00   664.74     0  00:00        0.00
  KWL_N_0042           JUNCTION  -nan(ind)     0.00   654.44     0  00:00        0.00
  KWL_N_0043           JUNCTION  -nan(ind)     0.00   653.21     0  00:00        0.00
  KWL_N_0044           JUNCTION  -nan(ind)     0.00   653.87     0  00:00        0.00
  KWL_N_0045           JUNCTION  -nan(ind)     0.00   654.17     0  00:00        0.00
  KWL_N_0046           JUNCTION  -nan(ind)     0.00   659.36     0  00:00        0.00
  KWL_N_0047           JUNCTION  -nan(ind)     0.00   658.20     0  00:00        0.00
  KWL_N_0048           JUNCTION  -nan(ind)     0.00   694.61     0  00:00        0.00
  KWL_N_0049           JUNCTION  -nan(ind)     0.00   665.15     0  00:00        0.00
  KWL_N_0050           JUNCTION  -nan(ind)     0.00   704.00     0  00:00        0.00
  KWL_N_0051           JUNCTION  -nan(ind)     0.00   652.21     0  00:00        0.00
  KWL_N_0052           JUNCTION  -nan(ind)     0.00   648.51     0  00:00        0.00
  KWL_N_0053           JUNCTION  -nan(ind)     0.00   648.88     0  00:00        0.00
  KWL_N_0054           JUNCTION  -nan(ind)     0.00   649.57     0  00:00        0.00
  KWL_N_0055           JUNCTION  -nan(ind)     0.00   649.23     0  00:00        0.00
  KWL_N_0057           JUNCTION  -nan(ind)     0.00   647.67     0  00:00        0.00
  KWL_N_0059           JUNCTION  -nan(ind)     0.00   648.33     0  00:00        0.00
  KWL_N_0060           JUNCTION  -nan(ind)     0.00   648.84     0  00:00        0.00
  KWL_N_0061           JUNCTION  -nan(ind)     0.00   650.62     0  00:00        0.00
  KWL_N_0062           JUNCTION  -nan(ind)     0.00   651.10     0  00:00        0.00
  KWL_N_0063           JUNCTION  -nan(ind)     0.00   650.31     0  00:00        0.00
  KWL_N_0064           JUNCTION  -nan(ind)     0.00   651.98     0  00:00        0.00
  KWL_N_0065           JUNCTION  -nan(ind)     0.00   650.12     0  00:00        0.00
  KWL_N_0066           JUNCTION  -nan(ind)     0.00   676.14     0  00:00        0.00
  KWL_N_0067           JUNCTION  -nan(ind)     0.00   670.13     0  00:00        0.00
  KWL_N_0068           JUNCTION  -nan(ind)     0.00   675.99     0  00:00        0.00
  KWL_N_0069           JUNCTION  -nan(ind)     0.00   659.73     0  00:00        0.00
  KWL_N_0070           JUNCTION  -nan(ind)     0.00   651.32     0  00:00        0.00
  KWL_N_0071           JUNCTION  -nan(ind)     0.00   651.24     0  00:00        0.00
  KWL_N_0072           JUNCTION  -nan(ind)     0.00   651.09     0  00:00        0.00
  KWL_N_0073           JUNCTION  -nan(ind)     0.00   650.81     0  00:00        0.00
  KWL_N_0074           JUNCTION  -nan(ind)     0.00   650.61     0  00:00        0.00
  KWL_N_0075           JUNCTION  -nan(ind)     0.00   650.54     0  00:00        0.00
  KWL_N_0076           JUNCTION  -nan(ind)     0.00   653.79     0  00:00        0.00
  KWL_N_0077           JUNCTION  -nan(ind)     0.00   656.77     0  00:00        0.00
  KWL_N_0078           JUNCTION  -nan(ind)     0.00   656.64     0  00:00        0.00
  KWL_N_0079           JUNCTION  -nan(ind)     0.00   656.28     0  00:00        0.00
  KWL_N_0080           JUNCTION  -nan(ind)     0.00   653.51     0  00:00        0.00
  KWL_N_0081           JUNCTION  -nan(ind)     0.00   653.60     0  00:00        0.00
  KWL_N_0082           JUNCTION  -nan(ind)     0.00   653.81     0  00:00        0.00
  KWL_N_0083           JUNCTION  -nan(ind)     0.00   653.94     0  00:00        0.00
  KWL_N_0084           JUNCTION  -nan(ind)     0.00   687.27     0  00:00        0.00
  KWL_N_0085           JUNCTION  -nan(ind)     0.00   657.42     0  00:00        0.00
  KWL_N_0086           JUNCTION  -nan(ind)     0.00   656.94     0  00:00        0.00
  KWL_N_0087           JUNCTION  -nan(ind)     0.00   652.76     0  00:00        0.00
  KWL_N_0088           JUNCTION  -nan(ind)     0.00   652.97     0  00:00        0.00
  KWL_N_0089           JUNCTION  -nan(ind)     0.00   653.11     0  00:00        0.00
  KWL_N_0090           JUNCTION  -nan(ind)     0.00   653.29     0  00:00        0.00
  KWL_N_0091           JUNCTION  -nan(ind)     0.00   653.46     0  00:00        0.00
  KWL_N_0092           JUNCTION  -nan(ind)     0.00   653.46     0  00:00        0.00
  KWL_N_0093           JUNCTION  -nan(ind)     0.00   652.63     0  00:00        0.00
  KWL_N_0094           JUNCTION  -nan(ind)     0.00   652.56     0  00:00        0.00
  KWL_N_0095           JUNCTION  -nan(ind)     0.00   652.41     0  00:00        0.00
  KWL_N_0096           JUNCTION  -nan(ind)     0.00   652.32     0  00:00        0.00
  KWL_N_0097           JUNCTION  -nan(ind)     0.00   652.23     0  00:00        0.00
  KWL_N_0099           JUNCTION  -nan(ind)     0.00   652.11     0  00:00        0.00
  KWL_N_0100           JUNCTION  -nan(ind)     0.00   652.01     0  00:00        0.00
  KWL_N_0101           JUNCTION  -nan(ind)     0.00   651.94     0  00:00        0.00
  KWL_N_0102           JUNCTION  -nan(ind)     0.00   651.81     0  00:00        0.00
  KWL_N_0103           JUNCTION  -nan(ind)     0.00   651.70     0  00:00        0.00
  KWL_N_0104           JUNCTION  -nan(ind)     0.00   651.65     0  00:00        0.00
  KWL_N_0105           JUNCTION  -nan(ind)     0.00   653.73     0  00:00        0.00
  KWL_N_0106           JUNCTION  -nan(ind)     0.00   653.24     0  00:00        0.00
  KWL_N_0107           JUNCTION  -nan(ind)     0.00   651.58     0  00:00        0.00
  KWL_N_0108           JUNCTION  -nan(ind)     0.00   651.58     0  00:00        0.00
  KWL_N_0109           JUNCTION  -nan(ind)     0.00   651.37     0  00:00        0.00
  KWL_N_0110           JUNCTION  -nan(ind)     0.00   653.39     0  00:00        0.00
  KWL_N_0111           JUNCTION  -nan(ind)     0.00   653.30     0  00:00        0.00
  KWL_N_0112           JUNCTION  -nan(ind)     0.00   655.43     0  00:00        0.00
  KWL_N_0113           JUNCTION  -nan(ind)     0.00   655.93     0  00:00        0.00
  KWL_N_0114           JUNCTION  -nan(ind)     0.00   656.38     0  00:00        0.00
  KWL_N_0115           JUNCTION  -nan(ind)     0.00   656.73     0  00:00        0.00
  KWL_N_0116           JUNCTION  -nan(ind)     0.00   657.10     0  00:00        0.00
  KWL_N_0117           JUNCTION  -nan(ind)     0.00   654.44     0  00:00        0.00
  KWL_N_0118           JUNCTION  -nan(ind)     0.00   708.47     0  00:00        0.00
  KWL_N_0119           JUNCTION  -nan(ind)     0.00   704.65     0  00:00        0.00
  KWL_N_0120           JUNCTION  -nan(ind)     0.00   700.66     0  00:00        0.00
  KWL_N_0121           JUNCTION  -nan(ind)     0.00   669.00     0  00:00        0.00
  KWL_N_0122           JUNCTION  -nan(ind)     0.00   658.91     0  00:00        0.00
  KWL_N_0123           JUNCTION  -nan(ind)     0.00   705.86     0  00:00        0.00
  KWL_N_0124           JUNCTION  -nan(ind)     0.00   659.21     0  00:00        0.00
  KWL_N_0125           JUNCTION  -nan(ind)     0.00   657.04     0  00:00        0.00
  KWL_N_0126           JUNCTION  -nan(ind)     0.00   654.35     0  00:00        0.00
  KWL_N_0127           JUNCTION  -nan(ind)     0.00   654.14     0  00:00        0.00
  KWL_N_0128           JUNCTION  -nan(ind)     0.00   654.41     0  00:00        0.00
  KWL_N_0129           JUNCTION  -nan(ind)     0.00   654.74     0  00:00        0.00
  KWL_N_0130           JUNCTION  -nan(ind)     0.00   654.94     0  00:00        0.00
  KWL_N_0131           JUNCTION  -nan(ind)     0.00   654.82     0  00:00        0.00
  KWL_N_0132           JUNCTION  -nan(ind)     0.00   670.53     0  00:00        0.00
  KWL_N_0133           JUNCTION  -nan(ind)     0.00   671.61     0  00:00        0.00
  KWL_N_0134           JUNCTION  -nan(ind)     0.00   661.56     0  00:00        0.00
  KWL_N_0135           JUNCTION  -nan(ind)     0.00   658.39     0  00:00        0.00
  KWL_N_0136           JUNCTION  -nan(ind)     0.00   655.14     0  00:00        0.00
  KWL_N_0137           JUNCTION  -nan(ind)     0.00   655.46     0  00:00        0.00
  KWL_N_0138           JUNCTION  -nan(ind)     0.00   655.61     0  00:00        0.00
  KWL_N_0139           JUNCTION  -nan(ind)     0.00   655.80     0  00:00        0.00
  KWL_N_0140           JUNCTION  -nan(ind)     0.00   656.01     0  00:00        0.00
  KWL_N_0141           JUNCTION  -nan(ind)     0.00   702.02     0  00:00        0.00
  KWL_N_0142           JUNCTION  -nan(ind)     0.00   700.25     0  00:00        0.00
  KWL_N_0143           JUNCTION  -nan(ind)     0.00   695.30     0  00:00        0.00
  KWL_N_0144           JUNCTION  -nan(ind)     0.00   687.73     0  00:00        0.00
  KWL_N_0145           JUNCTION  -nan(ind)     0.00   687.20     0  00:00        0.00
  KWL_N_0146           JUNCTION  -nan(ind)     0.00   682.61     0  00:00        0.00
  KWL_N_0148           JUNCTION  -nan(ind)     0.00   677.18     0  00:00        0.00
  KWL_N_0149           JUNCTION  -nan(ind)     0.00   698.52     0  00:00        0.00
  KWL_N_0150           JUNCTION  -nan(ind)     0.00   700.28     0  00:00        0.00
  KWL_N_0151           JUNCTION  -nan(ind)     0.00   696.32     0  00:00        0.00
  KWL_N_0152           JUNCTION  -nan(ind)     0.00   695.14     0  00:00        0.00
  KWL_N_0153           JUNCTION  -nan(ind)     0.00   662.92     0  00:00        0.00
  KWL_N_0154           JUNCTION  -nan(ind)     0.00   648.78     0  00:00        0.00
  KWL_N_0157           JUNCTION  -nan(ind)     0.00   652.99     0  00:00        0.00
  KWL_N_0158           JUNCTION  -nan(ind)     0.00   655.38     0  00:00        0.00
  KWL_N_0159           JUNCTION  -nan(ind)     0.00   656.73     0  00:00        0.00
  KWL_N_0160           JUNCTION  -nan(ind)     0.00   696.70     0  00:00        0.00
  KWL_N_0161           JUNCTION  -nan(ind)     0.00   697.54     0  00:00        0.00
  KWL_N_0162           JUNCTION  -nan(ind)     0.00   653.40     0  00:00        0.00
  KWL_N_0163           JUNCTION  -nan(ind)     0.00   653.67     0  00:00        0.00
  KWL_N_0164           JUNCTION  -nan(ind)     0.00   654.35     0  00:00        0.00
  KWL_N_0165           JUNCTION  -nan(ind)     0.00   650.26     0  00:00        0.00
  KWL_N_0166           JUNCTION  -nan(ind)     0.00   652.82     0  00:00        0.00
  KWL_N_0167           JUNCTION  -nan(ind)     0.00   652.10     0  00:00        0.00
  KWL_N_0168           JUNCTION  -nan(ind)     0.00   663.75     0  00:00        0.00
  KWL_N_0169           JUNCTION  -nan(ind)     0.00   658.46     0  00:00        0.00
  KWL_N_0170           JUNCTION  -nan(ind)     0.00   657.33     0  00:00        0.00
  KWL_N_0171           JUNCTION  -nan(ind)     0.00   656.66     0  00:00        0.00
  KWL_N_0172           JUNCTION  -nan(ind)     0.00   654.85     0  00:00        0.00
  KWL_N_0173           JUNCTION  -nan(ind)     0.00   655.00     0  00:00        0.00
  KWL_N_0174           JUNCTION  -nan(ind)     0.00   654.99     0  00:00        0.00
  KWL_N_0175           JUNCTION  -nan(ind)     0.00   654.57     0  00:00        0.00
  KWL_N_0176           JUNCTION  -nan(ind)     0.00   723.80     0  00:00        0.00
  KWL_N_0177           JUNCTION  -nan(ind)     0.00   717.82     0  00:00        0.00
  KWL_N_0178           JUNCTION  -nan(ind)     0.00   715.63     0  00:00        0.00
  KWL_N_0179           JUNCTION  -nan(ind)     0.00   715.07     0  00:00        0.00
  KWL_N_0180           JUNCTION  -nan(ind)     0.00   713.21     0  00:00        0.00
  KWL_N_0181           JUNCTION  -nan(ind)     0.00   713.46     0  00:00        0.00
  KWL_N_0182           JUNCTION  -nan(ind)     0.00   709.81     0  00:00        0.00
  KWL_N_0183           JUNCTION  -nan(ind)     0.00   710.12     0  00:00        0.00
  KWL_N_0184           JUNCTION  -nan(ind)     0.00   707.72     0  00:00        0.00
  KWL_N_0185           JUNCTION  -nan(ind)     0.00   707.25     0  00:00        0.00
  KWL_N_0186           JUNCTION  -nan(ind)     0.00   705.35     0  00:00        0.00
  KWL_N_0187           JUNCTION  -nan(ind)     0.00   702.07     0  00:00        0.00
  KWL_N_0188           JUNCTION  -nan(ind)     0.00   692.40     0  00:00        0.00
  KWL_N_0189           JUNCTION  -nan(ind)     0.00   668.79     0  00:00        0.00
  KWL_N_0190           JUNCTION  -nan(ind)     0.00   725.04     0  00:00        0.00
  KWL_N_0191           JUNCTION  -nan(ind)     0.00   716.59     0  00:00        0.00
  KWL_N_0192           JUNCTION  -nan(ind)     0.00   717.79     0  00:00        0.00
  KWL_N_0193           JUNCTION  -nan(ind)     0.00   716.82     0  00:00        0.00
  KWL_N_0194           JUNCTION  -nan(ind)     0.00   727.09     0  00:00        0.00
  KWL_N_0195           JUNCTION  -nan(ind)     0.00   725.39     0  00:00        0.00
  KWL_N_0196           JUNCTION  -nan(ind)     0.00   722.49     0  00:00        0.00
  KWL_N_0197           JUNCTION  -nan(ind)     0.00   660.70     0  00:00        0.00
  KWL_N_0198           JUNCTION  -nan(ind)     0.00   658.87     0  00:00        0.00
  KWL_N_0199           JUNCTION  -nan(ind)     0.00   658.11     0  00:00        0.00
  KWL_N_0200           JUNCTION  -nan(ind)     0.00   662.10     0  00:00        0.00
  KWL_N_0201           JUNCTION  -nan(ind)     0.00   659.40     0  00:00        0.00
  KWL_N_0202           JUNCTION  -nan(ind)     0.00   662.72     0  00:00        0.00
  KWL_N_0203           JUNCTION  -nan(ind)     0.00   661.95     0  00:00        0.00
  KWL_N_0204           JUNCTION  -nan(ind)     0.00   664.52     0  00:00        0.00
  KWL_N_0205           JUNCTION  -nan(ind)     0.00   665.85     0  00:00        0.00
  KWL_N_0207           JUNCTION  -nan(ind)     0.00   670.73     0  00:00        0.00
  KWL_N_0208           JUNCTION  -nan(ind)     0.00   663.15     0  00:00        0.00
  KWL_N_0209           JUNCTION  -nan(ind)     0.00   671.25     0  00:00        0.00
  KWL_N_0210           JUNCTION  -nan(ind)     0.00   655.55     0  00:00        0.00
  KWL_N_0211           JUNCTION  -nan(ind)     0.00   654.89     0  00:00        0.00
  KWL_N_0212           JUNCTION  -nan(ind)     0.00   659.69     0  00:00        0.00
  KWL_N_0213           JUNCTION  -nan(ind)     0.00   660.22     0  00:00        0.00
  KWL_N_0214           JUNCTION  -nan(ind)     0.00   661.32     0  00:00        0.00
  KWL_N_0215           JUNCTION  -nan(ind)     0.00   660.25     0  00:00        0.00
  KWL_N_0216           JUNCTION  -nan(ind)     0.00   666.22     0  00:00        0.00
  KWL_N_0217           JUNCTION  -nan(ind)     0.00   660.63     0  00:00        0.00
  KWL_N_0218           JUNCTION  -nan(ind)     0.00   659.91     0  00:00        0.00
  KWL_N_0219           JUNCTION  -nan(ind)     0.00   657.93     0  00:00        0.00
  KWL_N_0220           JUNCTION  -nan(ind)     0.00   658.33     0  00:00        0.00
  KWL_N_0221           JUNCTION  -nan(ind)     0.00   659.77     0  00:00        0.00
  KWL_N_0222           JUNCTION  -nan(ind)     0.00   660.35     0  00:00        0.00
  KWL_N_0223           JUNCTION  -nan(ind)     0.00   659.09     0  00:00        0.00
  KWL_N_0224           JUNCTION  -nan(ind)     0.00   658.59     0  00:00        0.00
  KWL_N_0225           JUNCTION  -nan(ind)     0.00   656.79     0  00:00        0.00
  KWL_N_0226           JUNCTION  -nan(ind)     0.00   656.26     0  00:00        0.00
  KWL_N_0227           JUNCTION  -nan(ind)     0.00   655.95     0  00:00        0.00
  KWL_N_0228           JUNCTION  -nan(ind)     0.00   659.24     0  00:00        0.00
  KWL_N_0229           JUNCTION  -nan(ind)     0.00   662.11     0  00:00        0.00
  KWL_N_0230           JUNCTION  -nan(ind)     0.00   662.01     0  00:00        0.00
  KWL_N_0231           JUNCTION  -nan(ind)     0.00   663.06     0  00:00        0.00
  KWL_N_0232           JUNCTION  -nan(ind)     0.00   661.52     0  00:00        0.00
  KWL_N_0233           JUNCTION  -nan(ind)     0.00   666.09     0  00:00        0.00
  KWL_N_0234           JUNCTION  -nan(ind)     0.00   663.24     0  00:00        0.00
  KWL_N_0235           JUNCTION  -nan(ind)     0.00   660.96     0  00:00        0.00
  KWL_N_0236           JUNCTION  -nan(ind)     0.00   659.75     0  00:00        0.00
  KWL_N_0237           JUNCTION  -nan(ind)     0.00   659.13     0  00:00        0.00
  KWL_N_0238           JUNCTION  -nan(ind)     0.00   655.39     0  00:00        0.00
  KWL_N_0239           JUNCTION  -nan(ind)     0.00   659.24     0  00:00        0.00
  KWL_N_0240           JUNCTION  -nan(ind)     0.00   658.13     0  00:00        0.00
  KWL_N_0241           JUNCTION  -nan(ind)     0.00   656.42     0  00:00        0.00
  KWL_N_0242           JUNCTION  -nan(ind)     0.00   656.22     0  00:00        0.00
  KWL_N_0243           JUNCTION  -nan(ind)     0.00   655.63     0  00:00        0.00
  KWL_N_0244           JUNCTION  -nan(ind)     0.00   656.28     0  00:00        0.00
  KWL_N_0245           JUNCTION  -nan(ind)     0.00   657.14     0  00:00        0.00
  KWL_N_0246           JUNCTION  -nan(ind)     0.00   696.85     0  00:00        0.00
  KWL_N_0247           JUNCTION  -nan(ind)     0.00   693.61     0  00:00        0.00
  KWL_N_0248           JUNCTION  -nan(ind)     0.00   685.09     0  00:00        0.00
  KWL_N_0249           JUNCTION  -nan(ind)     0.00   684.84     0  00:00        0.00
  KWL_N_0250           JUNCTION  -nan(ind)     0.00   680.90     0  00:00        0.00
  KWL_N_0251           JUNCTION  -nan(ind)     0.00   691.40     0  00:00        0.00
  KWL_N_0252           JUNCTION  -nan(ind)     0.00   689.01     0  00:00        0.00
  KWL_N_0253           JUNCTION  -nan(ind)     0.00   683.74     0  00:00        0.00
  KWL_N_0254           JUNCTION  -nan(ind)     0.00   678.91     0  00:00        0.00
  KWL_N_0255           JUNCTION  -nan(ind)     0.00   662.96     0  00:00        0.00
  KWL_N_0256           JUNCTION  -nan(ind)     0.00   664.56     0  00:00        0.00
  KWL_N_0257           JUNCTION  -nan(ind)     0.00   663.50     0  00:00        0.00
  KWL_N_0258           JUNCTION  -nan(ind)     0.00   663.51     0  00:00        0.00
  KWL_N_0259           JUNCTION  -nan(ind)     0.00   658.05     0  00:00        0.00
  KWL_N_0260           JUNCTION  -nan(ind)     0.00   659.96     0  00:00        0.00
  KWL_N_0261           JUNCTION  -nan(ind)     0.00   663.02     0  00:00        0.00
  KWL_N_0263           JUNCTION  -nan(ind)     0.00   664.12     0  00:00        0.00
  KWL_N_0265           JUNCTION  -nan(ind)     0.00   663.71     0  00:00        0.00
  KWL_N_0266           JUNCTION  -nan(ind)     0.00   665.62     0  00:00        0.00
  KWL_N_0267           JUNCTION  -nan(ind)     0.00   663.83     0  00:00        0.00
  KWL_N_0268           JUNCTION  -nan(ind)     0.00   668.28     0  00:00        0.00
  KWL_N_0269           JUNCTION  -nan(ind)     0.00   663.30     0  00:00        0.00
  KWL_N_0270           JUNCTION  -nan(ind)     0.00   666.58     0  00:00        0.00
  KWL_N_0271           JUNCTION  -nan(ind)     0.00   665.56     0  00:00        0.00
  KWL_N_0272           JUNCTION  -nan(ind)     0.00   665.12     0  00:00        0.00
  KWL_N_0273           JUNCTION  -nan(ind)     0.00   661.02     0  00:00        0.00
  KWL_N_0274           JUNCTION  -nan(ind)     0.00   657.33     0  00:00        0.00
  KWL_N_0275           JUNCTION  -nan(ind)     0.00   719.09     0  00:00        0.00
  KWL_N_0276           JUNCTION  -nan(ind)     0.00   716.06     0  00:00        0.00
  KWL_N_0277           JUNCTION  -nan(ind)     0.00   694.54     0  00:00        0.00
  KWL_N_0278           JUNCTION  -nan(ind)     0.00   696.46     0  00:00        0.00
  KWL_N_0279           JUNCTION  -nan(ind)     0.00   701.06     0  00:00        0.00
  KWL_N_0280           JUNCTION  -nan(ind)     0.00   701.55     0  00:00        0.00
  KWL_N_0281           JUNCTION  -nan(ind)     0.00   698.40     0  00:00        0.00
  KWL_N_0282           JUNCTION  -nan(ind)     0.00   692.52     0  00:00        0.00
  KWL_N_0283           JUNCTION  -nan(ind)     0.00   689.46     0  00:00        0.00
  KWL_N_0284           JUNCTION  -nan(ind)     0.00   694.29     0  00:00        0.00
  KWL_N_0285           JUNCTION  -nan(ind)     0.00   696.18     0  00:00        0.00
  KWL_N_0286           JUNCTION  -nan(ind)     0.00   689.56     0  00:00        0.00
  KWL_N_0287           JUNCTION  -nan(ind)     0.00   690.37     0  00:00        0.00
  KWL_N_0288           JUNCTION  -nan(ind)     0.00   683.10     0  00:00        0.00
  KWL_N_0289           JUNCTION  -nan(ind)     0.00   683.72     0  00:00        0.00
  KWL_N_0290           JUNCTION  -nan(ind)     0.00   679.79     0  00:00        0.00
  KWL_N_0291           JUNCTION  -nan(ind)     0.00   678.33     0  00:00        0.00
  KWL_N_0292           JUNCTION  -nan(ind)     0.00   680.97     0  00:00        0.00
  KWL_N_0293           JUNCTION  -nan(ind)     0.00   709.61     0  00:00        0.00
  KWL_N_0294           JUNCTION  -nan(ind)     0.00   709.82     0  00:00        0.00
  KWL_N_0295           JUNCTION  -nan(ind)     0.00   710.65     0  00:00        0.00
  KWL_N_0296           JUNCTION  -nan(ind)     0.00   706.41     0  00:00        0.00
  KWL_N_0297           JUNCTION  -nan(ind)     0.00   705.95     0  00:00        0.00
  KWL_N_0298           JUNCTION  -nan(ind)     0.00   708.87     0  00:00        0.00
  KWL_N_0299           JUNCTION  -nan(ind)     0.00   669.27     0  00:00        0.00
  KWL_N_0300           JUNCTION  -nan(ind)     0.00   665.07     0  00:00        0.00
  KWL_N_0301           JUNCTION  -nan(ind)     0.00   668.33     0  00:00        0.00
  KWL_N_0302           JUNCTION  -nan(ind)     0.00   660.26     0  00:00        0.00
  KWL_N_0303           JUNCTION  -nan(ind)     0.00   659.03     0  00:00        0.00
  KWL_N_0304           JUNCTION  -nan(ind)     0.00   659.49     0  00:00        0.00
  KWL_N_0305           JUNCTION  -nan(ind)     0.00   658.31     0  00:00        0.00
  KWL_N_0306           JUNCTION  -nan(ind)     0.00   659.44     0  00:00        0.00
  KWL_N_0307           JUNCTION  -nan(ind)     0.00   660.97     0  00:00        0.00
  KWL_N_0308           JUNCTION  -nan(ind)     0.00   661.04     0  00:00        0.00
  KWL_N_0309           JUNCTION  -nan(ind)     0.00   661.24     0  00:00        0.00
  KWL_N_0310           JUNCTION  -nan(ind)     0.00   661.61     0  00:00        0.00
  KWL_N_0311           JUNCTION  -nan(ind)     0.00   661.95     0  00:00        0.00
  KWL_N_0312           JUNCTION  -nan(ind)     0.00   661.61     0  00:00        0.00
  KWL_N_0313           JUNCTION  -nan(ind)     0.00   660.40     0  00:00        0.00
  KWL_N_0314           JUNCTION  -nan(ind)     0.00   657.65     0  00:00        0.00
  KWL_N_0315           JUNCTION  -nan(ind)     0.00   656.77     0  00:00        0.00
  KWL_N_0316           JUNCTION  -nan(ind)     0.00   657.12     0  00:00        0.00
  KWL_N_0317           JUNCTION  -nan(ind)     0.00   656.68     0  00:00        0.00
  KWL_N_0318           JUNCTION  -nan(ind)     0.00   665.14     0  00:00        0.00
  KWL_N_0319           JUNCTION  -nan(ind)     0.00   657.23     0  00:00        0.00
  KWL_N_0320           JUNCTION  -nan(ind)     0.00   661.71     0  00:00        0.00
  KWL_N_0321           JUNCTION  -nan(ind)     0.00   700.12     0  00:00        0.00
  KWL_N_0322           JUNCTION  -nan(ind)     0.00   672.40     0  00:00        0.00
  KWL_N_0323           JUNCTION  -nan(ind)     0.00   670.79     0  00:00        0.00
  KWL_N_0324           JUNCTION  -nan(ind)     0.00   672.45     0  00:00        0.00
  KWL_N_0327           JUNCTION  -nan(ind)     0.00   661.26     0  00:00        0.00
  KWL_N_0328           JUNCTION  -nan(ind)     0.00   658.39     0  00:00        0.00
  KWL_N_0329           JUNCTION  -nan(ind)     0.00   690.72     0  00:00        0.00
  KWL_N_0330           JUNCTION  -nan(ind)     0.00   697.06     0  00:00        0.00
  KWL_N_0331           JUNCTION  -nan(ind)     0.00   691.17     0  00:00        0.00
  KWL_N_0332           JUNCTION  -nan(ind)     0.00   694.38     0  00:00        0.00
  KWL_N_0333           JUNCTION  -nan(ind)     0.00   692.83     0  00:00        0.00
  KWL_N_0334           JUNCTION  -nan(ind)     0.00   679.35     0  00:00        0.00
  KWL_N_0335           JUNCTION  -nan(ind)     0.00   677.65     0  00:00        0.00
  KWL_N_0336           JUNCTION  -nan(ind)     0.00   667.00     0  00:00        0.00
  KWL_N_0337           JUNCTION  -nan(ind)     0.00   658.06     0  00:00        0.00
  KWL_N_0338           JUNCTION  -nan(ind)     0.00   660.62     0  00:00        0.00
  KWL_N_0339           JUNCTION  -nan(ind)     0.00   666.94     0  00:00        0.00
  KWL_N_0340           JUNCTION  -nan(ind)     0.00   665.69     0  00:00        0.00
  KWL_N_0341           JUNCTION  -nan(ind)     0.00   663.83     0  00:00        0.00
  KWL_N_0342           JUNCTION  -nan(ind)     0.00   687.01     0  00:00        0.00
  KWL_N_0343           JUNCTION  -nan(ind)     0.00   649.48     0  00:00        0.00
  KWL_N_0344           JUNCTION  -nan(ind)     0.00   649.73     0  00:00        0.00
  KWL_N_0345           JUNCTION  -nan(ind)     0.00   649.03     0  00:00        0.00
  KWL_N_0347           JUNCTION  -nan(ind)     0.00   648.59     0  00:00        0.00
  KWL_N_0348           JUNCTION  -nan(ind)     0.00   648.05     0  00:00        0.00
  KWL_N_0349           JUNCTION  -nan(ind)     0.00   648.56     0  00:00        0.00
  KWL_N_0350           JUNCTION  -nan(ind)     0.00   647.29     0  00:00        0.00
  KWL_N_0351           JUNCTION  -nan(ind)     0.00   646.91     0  00:00        0.00
  KWL_N_0352           JUNCTION  -nan(ind)     0.00   646.61     0  00:00        0.00
  KWL_N_0353           JUNCTION  -nan(ind)     0.00   646.23     0  00:00        0.00
  KWL_N_0354           JUNCTION  -nan(ind)     0.00   648.16     0  00:00        0.00
  KWL_N_0355           JUNCTION  -nan(ind)     0.00   654.75     0  00:00        0.00
  KWL_N_0356           JUNCTION  -nan(ind)     0.00   657.59     0  00:00        0.00
  KWL_N_0357           JUNCTION  -nan(ind)     0.00   657.20     0  00:00        0.00
  KWL_N_0358           JUNCTION  -nan(ind)     0.00   655.18     0  00:00        0.00
  KWL_N_0359           JUNCTION  -nan(ind)     0.00   659.72     0  00:00        0.00
  KWL_N_0360           JUNCTION  -nan(ind)     0.00   660.18     0  00:00        0.00
  KWL_N_0361           JUNCTION  -nan(ind)     0.00   663.58     0  00:00        0.00
  KWL_N_0363           JUNCTION  -nan(ind)     0.00   662.14     0  00:00        0.00
  KWL_N_0364           JUNCTION  -nan(ind)     0.00   661.78     0  00:00        0.00
  KWL_N_0365           JUNCTION  -nan(ind)     0.00   652.71     0  00:00        0.00
  KWL_N_0366           JUNCTION  -nan(ind)     0.00   649.32     0  00:00        0.00
  KWL_N_0367           JUNCTION  -nan(ind)     0.00   649.74     0  00:00        0.00
  KWL_N_0368           JUNCTION  -nan(ind)     0.00   651.17     0  00:00        0.00
  KWL_N_0369           JUNCTION  -nan(ind)     0.00   653.18     0  00:00        0.00
  KWL_N_0370           JUNCTION  -nan(ind)     0.00   652.63     0  00:00        0.00
  KWL_N_0371           JUNCTION  -nan(ind)     0.00   652.02     0  00:00        0.00
  KWL_N_0372           JUNCTION  -nan(ind)     0.00   650.76     0  00:00        0.00
  KWL_N_0373           JUNCTION  -nan(ind)     0.00   652.23     0  00:00        0.00
  KWL_N_0374           JUNCTION  -nan(ind)     0.00   652.63     0  00:00        0.00
  KWL_N_0375           JUNCTION  -nan(ind)     0.00   654.01     0  00:00        0.00
  KWL_N_0376           JUNCTION  -nan(ind)     0.00   650.32     0  00:00        0.00
  KWL_N_0377           JUNCTION  -nan(ind)     0.00   650.58     0  00:00        0.00
  KWL_N_0378           JUNCTION  -nan(ind)     0.00   652.63     0  00:00        0.00
  KWL_N_0379           JUNCTION  -nan(ind)     0.00   652.44     0  00:00        0.00
  KWL_N_0380           JUNCTION  -nan(ind)     0.00   652.07     0  00:00        0.00
  KWL_N_0381           JUNCTION  -nan(ind)     0.00   651.95     0  00:00        0.00
  KWL_N_0382           JUNCTION  -nan(ind)     0.00   652.93     0  00:00        0.00
  KWL_N_0383           JUNCTION  -nan(ind)     0.00   653.17     0  00:00        0.00
  KWL_N_0384           JUNCTION  -nan(ind)     0.00   653.52     0  00:00        0.00
  KWL_N_0385           JUNCTION  -nan(ind)     0.00   654.03     0  00:00        0.00
  KWL_N_0386           JUNCTION  -nan(ind)     0.00   656.26     0  00:00        0.00
  KWL_N_0387           JUNCTION  -nan(ind)     0.00   655.91     0  00:00        0.00
  KWL_N_0388           JUNCTION  -nan(ind)     0.00   657.11     0  00:00        0.00
  KWL_N_0389           JUNCTION  -nan(ind)     0.00   656.94     0  00:00        0.00
  KWL_N_0390           JUNCTION  -nan(ind)     0.00   654.37     0  00:00        0.00
  KWL_N_0391           JUNCTION  -nan(ind)     0.00   684.13     0  00:00        0.00
  KWL_N_0392           JUNCTION  -nan(ind)     0.00   678.05     0  00:00        0.00
  KWL_N_0393           JUNCTION  -nan(ind)     0.00   671.76     0  00:00        0.00
  KWL_N_0394           JUNCTION  -nan(ind)     0.00   670.33     0  00:00        0.00
  KWL_N_0395           JUNCTION  -nan(ind)     0.00   667.86     0  00:00        0.00
  KWL_N_0396           JUNCTION  -nan(ind)     0.00   664.30     0  00:00        0.00
  KWL_N_0397           JUNCTION  -nan(ind)     0.00   662.36     0  00:00        0.00
  KWL_N_0398           JUNCTION  -nan(ind)     0.00   661.97     0  00:00        0.00
  KWL_N_0399           JUNCTION  -nan(ind)     0.00   660.08     0  00:00        0.00
  KWL_N_0400           JUNCTION  -nan(ind)     0.00   657.19     0  00:00        0.00
  KWL_N_0401           JUNCTION  -nan(ind)     0.00   658.22     0  00:00        0.00
  KWL_N_0402           JUNCTION  -nan(ind)     0.00   657.75     0  00:00        0.00
  KWL_N_0403           JUNCTION  -nan(ind)     0.00   657.47     0  00:00        0.00
  KWL_N_0405           JUNCTION  -nan(ind)     0.00   655.99     0  00:00        0.00
  KWL_N_0406           JUNCTION  -nan(ind)     0.00   654.41     0  00:00        0.00
  KWL_N_0407           JUNCTION  -nan(ind)     0.00   654.04     0  00:00        0.00
  KWL_N_0408           JUNCTION  -nan(ind)     0.00   653.61     0  00:00        0.00
  KWL_N_0409           JUNCTION  -nan(ind)     0.00   653.30     0  00:00        0.00
  KWL_N_0410           JUNCTION  -nan(ind)     0.00   653.17     0  00:00        0.00
  KWL_N_0411           JUNCTION  -nan(ind)     0.00   720.03     0  00:00        0.00
  KWL_N_0412           JUNCTION  -nan(ind)     0.00   722.15     0  00:00        0.00
  KWL_N_0413           JUNCTION  -nan(ind)     0.00   718.03     0  00:00        0.00
  KWL_N_0414           JUNCTION  -nan(ind)     0.00   715.06     0  00:00        0.00
  KWL_N_0415           JUNCTION  -nan(ind)     0.00   715.67     0  00:00        0.00
  KWL_N_0416           JUNCTION  -nan(ind)     0.00   714.67     0  00:00        0.00
  KWL_N_0417           JUNCTION  -nan(ind)     0.00   713.71     0  00:00        0.00
  KWL_N_0418           JUNCTION  -nan(ind)     0.00   705.01     0  00:00        0.00
  KWL_N_0419           JUNCTION  -nan(ind)     0.00   704.84     0  00:00        0.00
  KWL_N_0420           JUNCTION  -nan(ind)     0.00   712.86     0  00:00        0.00
  KWL_N_0421           JUNCTION  -nan(ind)     0.00   707.74     0  00:00        0.00
  KWL_N_0422           JUNCTION  -nan(ind)     0.00   709.83     0  00:00        0.00
  KWL_N_0423           JUNCTION  -nan(ind)     0.00   713.42     0  00:00        0.00
  KWL_N_0424           JUNCTION  -nan(ind)     0.00   706.99     0  00:00        0.00
  KWL_N_0425           JUNCTION  -nan(ind)     0.00   700.87     0  00:00        0.00
  KWL_N_0426           JUNCTION  -nan(ind)     0.00   711.64     0  00:00        0.00
  KWL_N_0427           JUNCTION  -nan(ind)     0.00   704.25     0  00:00        0.00
  KWL_N_0428           JUNCTION  -nan(ind)     0.00   694.77     0  00:00        0.00
  KWL_N_0429           JUNCTION  -nan(ind)     0.00   706.18     0  00:00        0.00
  KWL_N_0430           JUNCTION  -nan(ind)     0.00   704.45     0  00:00        0.00
  KWL_N_0431           JUNCTION  -nan(ind)     0.00   703.87     0  00:00        0.00
  KWL_N_0432           JUNCTION  -nan(ind)     0.00   703.62     0  00:00        0.00
  KWL_N_0433           JUNCTION  -nan(ind)     0.00   702.93     0  00:00        0.00
  KWL_N_0434           JUNCTION  -nan(ind)     0.00   701.99     0  00:00        0.00
  KWL_N_0435           JUNCTION  -nan(ind)     0.00   685.41     0  00:00        0.00
  KWL_N_0436           JUNCTION  -nan(ind)     0.00   696.04     0  00:00        0.00
  KWL_N_0437           JUNCTION  -nan(ind)     0.00   703.96     0  00:00        0.00
  KWL_N_0438           JUNCTION  -nan(ind)     0.00   709.25     0  00:00        0.00
  KWL_N_0439           JUNCTION  -nan(ind)     0.00   706.36     0  00:00        0.00
  KWL_N_0440           JUNCTION  -nan(ind)     0.00   700.95     0  00:00        0.00
  KWL_N_0441           JUNCTION  -nan(ind)     0.00   691.63     0  00:00        0.00
  KWL_N_0442           JUNCTION  -nan(ind)     0.00   684.49     0  00:00        0.00
  KWL_N_0443           JUNCTION  -nan(ind)     0.00   677.99     0  00:00        0.00
  KWL_N_0444           JUNCTION  -nan(ind)     0.00   700.09     0  00:00        0.00
  KWL_N_0445           JUNCTION  -nan(ind)     0.00   701.09     0  00:00        0.00
  KWL_N_0446           JUNCTION  -nan(ind)     0.00   699.60     0  00:00        0.00
  KWL_N_0447           JUNCTION  -nan(ind)     0.00   696.22     0  00:00        0.00
  KWL_N_0448           JUNCTION  -nan(ind)     0.00   699.40     0  00:00        0.00
  KWL_N_0449           JUNCTION  -nan(ind)     0.00   691.53     0  00:00        0.00
  KWL_N_0450           JUNCTION  -nan(ind)     0.00   678.81     0  00:00        0.00
  KWL_N_0451           JUNCTION  -nan(ind)     0.00   670.81     0  00:00        0.00
  KWL_N_0452           JUNCTION  -nan(ind)     0.00   694.94     0  00:00        0.00
  KWL_N_0453           JUNCTION  -nan(ind)     0.00   688.75     0  00:00        0.00
  KWL_N_0454           JUNCTION  -nan(ind)     0.00   689.28     0  00:00        0.00
  KWL_N_0455           JUNCTION  -nan(ind)     0.00   689.84     0  00:00        0.00
  KWL_N_0456           JUNCTION  -nan(ind)     0.00   691.94     0  00:00        0.00
  KWL_N_0457           JUNCTION  -nan(ind)     0.00   720.73     0  00:00        0.00
  KWL_N_0458           JUNCTION  -nan(ind)     0.00   719.39     0  00:00        0.00
  KWL_N_0459           JUNCTION  -nan(ind)     0.00   722.96     0  00:00        0.00
  KWL_N_0460           JUNCTION  -nan(ind)     0.00   721.45     0  00:00        0.00
  KWL_N_0461           JUNCTION  -nan(ind)     0.00   718.78     0  00:00        0.00
  KWL_N_0462           JUNCTION  -nan(ind)     0.00   717.19     0  00:00        0.00
  KWL_N_0463           JUNCTION  -nan(ind)     0.00   715.56     0  00:00        0.00
  KWL_N_0464           JUNCTION  -nan(ind)     0.00   713.55     0  00:00        0.00
  KWL_N_0465           JUNCTION  -nan(ind)     0.00   711.74     0  00:00        0.00
  KWL_N_0466           JUNCTION  -nan(ind)     0.00   713.90     0  00:00        0.00
  KWL_N_0467           JUNCTION  -nan(ind)     0.00   713.90     0  00:00        0.00
  KWL_N_0468           JUNCTION  -nan(ind)     0.00   714.83     0  00:00        0.00
  KWL_N_0469           JUNCTION  -nan(ind)     0.00   714.73     0  00:00        0.00
  KWL_N_0470           JUNCTION  -nan(ind)     0.00   712.76     0  00:00        0.00
  KWL_N_0471           JUNCTION  -nan(ind)     0.00   712.08     0  00:00        0.00
  KWL_N_0472           JUNCTION  -nan(ind)     0.00   711.66     0  00:00        0.00
  KWL_N_0473           JUNCTION  -nan(ind)     0.00   711.21     0  00:00        0.00
  KWL_N_0474           JUNCTION  -nan(ind)     0.00   716.44     0  00:00        0.00
  KWL_N_0475           JUNCTION  -nan(ind)     0.00   716.02     0  00:00        0.00
  KWL_N_0476           JUNCTION  -nan(ind)     0.00   723.34     0  00:00        0.00
  KWL_N_0477           JUNCTION  -nan(ind)     0.00   719.11     0  00:00        0.00
  KWL_N_0478           JUNCTION  -nan(ind)     0.00   715.79     0  00:00        0.00
  KWL_N_0479           JUNCTION  -nan(ind)     0.00   722.29     0  00:00        0.00
  KWL_N_0480           JUNCTION  -nan(ind)     0.00   720.79     0  00:00        0.00
  KWL_N_0481           JUNCTION  -nan(ind)     0.00   717.36     0  00:00        0.00
  KWL_N_0482           JUNCTION  -nan(ind)     0.00   715.00     0  00:00        0.00
  KWL_N_0483           JUNCTION  -nan(ind)     0.00   714.68     0  00:00        0.00
  KWL_N_0484           JUNCTION  -nan(ind)     0.00   710.70     0  00:00        0.00
  KWL_N_0485           JUNCTION  -nan(ind)     0.00   661.14     0  00:00        0.00
  KWL_N_0486           JUNCTION  -nan(ind)     0.00   659.94     0  00:00        0.00
  KWL_N_0487           JUNCTION  -nan(ind)     0.00   658.58     0  00:00        0.00
  KWL_N_0488           JUNCTION  -nan(ind)     0.00   657.89     0  00:00        0.00
  KWL_N_0489           JUNCTION  -nan(ind)     0.00   657.21     0  00:00        0.00
  KWL_N_0490           JUNCTION  -nan(ind)     0.00   656.75     0  00:00        0.00
  KWL_N_0491           JUNCTION  -nan(ind)     0.00   658.38     0  00:00        0.00
  KWL_N_0492           JUNCTION  -nan(ind)     0.00   657.95     0  00:00        0.00
  KWL_N_0493           JUNCTION  -nan(ind)     0.00   657.52     0  00:00        0.00
  KWL_N_0494           JUNCTION  -nan(ind)     0.00   656.26     0  00:00        0.00
  KWL_N_0495           JUNCTION  -nan(ind)     0.00   655.95     0  00:00        0.00
  KWL_N_0496           JUNCTION  -nan(ind)     0.00   655.80     0  00:00        0.00
  KWL_N_0497           JUNCTION  -nan(ind)     0.00   656.56     0  00:00        0.00
  KWL_N_0498           JUNCTION  -nan(ind)     0.00   657.69     0  00:00        0.00
  KWL_N_0499           JUNCTION  -nan(ind)     0.00   658.94     0  00:00        0.00
  KWL_N_0500           JUNCTION  -nan(ind)     0.00   658.58     0  00:00        0.00
  KWL_N_0501           JUNCTION  -nan(ind)     0.00   658.16     0  00:00        0.00
  KWL_N_0502           JUNCTION  -nan(ind)     0.00   660.25     0  00:00        0.00
  KWL_N_0503           JUNCTION  -nan(ind)     0.00   659.78     0  00:00        0.00
  KWL_N_0504           JUNCTION  -nan(ind)     0.00   659.45     0  00:00        0.00
  KWL_N_0505           JUNCTION  -nan(ind)     0.00   658.46     0  00:00        0.00
  KWL_N_0506           JUNCTION  -nan(ind)     0.00   659.49     0  00:00        0.00
  KWL_N_0507           JUNCTION  -nan(ind)     0.00   660.97     0  00:00        0.00
  KWL_N_0508           JUNCTION  -nan(ind)     0.00   661.35     0  00:00        0.00
  KWL_N_0509           JUNCTION  -nan(ind)     0.00   661.77     0  00:00        0.00
  KWL_N_0510           JUNCTION  -nan(ind)     0.00   662.17     0  00:00        0.00
  KWL_N_0511           JUNCTION  -nan(ind)     0.00   658.90     0  00:00        0.00
  KWL_N_0512           JUNCTION  -nan(ind)     0.00   662.21     0  00:00        0.00
  KWL_N_0513           JUNCTION  -nan(ind)     0.00   660.25     0  00:00        0.00
  KWL_N_0514           JUNCTION  -nan(ind)     0.00   662.73     0  00:00        0.00
  KWL_N_0515           JUNCTION  -nan(ind)     0.00   661.00     0  00:00        0.00
  KWL_N_0516           JUNCTION  -nan(ind)     0.00   660.49     0  00:00        0.00
  KWL_N_0517           JUNCTION  -nan(ind)     0.00   660.76     0  00:00        0.00
  KWL_N_0518           JUNCTION  -nan(ind)     0.00   662.15     0  00:00        0.00
  KWL_N_0519           JUNCTION  -nan(ind)     0.00   662.00     0  00:00        0.00
  KWL_N_0520           JUNCTION  -nan(ind)     0.00   664.20     0  00:00        0.00
  KWL_N_0521           JUNCTION  -nan(ind)     0.00   669.80     0  00:00        0.00
  KWL_N_0522           JUNCTION  -nan(ind)     0.00   670.43     0  00:00        0.00
  KWL_N_0523           JUNCTION  -nan(ind)     0.00   667.56     0  00:00        0.00
  KWL_N_0524           JUNCTION  -nan(ind)     0.00   665.49     0  00:00        0.00
  KWL_N_0525           JUNCTION  -nan(ind)     0.00   663.08     0  00:00        0.00
  KWL_N_0526           JUNCTION  -nan(ind)     0.00   666.91     0  00:00        0.00
  KWL_N_0527           JUNCTION  -nan(ind)     0.00   667.44     0  00:00        0.00
  KWL_N_0528           JUNCTION  -nan(ind)     0.00   663.34     0  00:00        0.00
  KWL_N_0529           JUNCTION  -nan(ind)     0.00   663.67     0  00:00        0.00
  KWL_N_0530           JUNCTION  -nan(ind)     0.00   664.93     0  00:00        0.00
  KWL_N_0531           JUNCTION  -nan(ind)     0.00   668.94     0  00:00        0.00
  KWL_N_0532           JUNCTION  -nan(ind)     0.00   667.82     0  00:00        0.00
  KWL_N_0533           JUNCTION  -nan(ind)     0.00   665.00     0  00:00        0.00
  KWL_N_0534           JUNCTION  -nan(ind)     0.00   665.19     0  00:00        0.00
  KWL_N_0535           JUNCTION  -nan(ind)     0.00   665.30     0  00:00        0.00
  KWL_N_0536           JUNCTION  -nan(ind)     0.00   665.40     0  00:00        0.00
  KWL_N_0537           JUNCTION  -nan(ind)     0.00   660.88     0  00:00        0.00
  KWL_N_0538           JUNCTION  -nan(ind)     0.00   660.51     0  00:00        0.00
  KWL_N_0539           JUNCTION  -nan(ind)     0.00   660.08     0  00:00        0.00
  KWL_N_0540           JUNCTION  -nan(ind)     0.00   660.00     0  00:00        0.00
  KWL_N_0541           JUNCTION  -nan(ind)     0.00   655.26     0  00:00        0.00
  KWL_N_0542           JUNCTION  -nan(ind)     0.00   656.24     0  00:00        0.00
  KWL_N_0543           JUNCTION  -nan(ind)     0.00   657.19     0  00:00        0.00
  KWL_N_0544           JUNCTION  -nan(ind)     0.00   658.41     0  00:00        0.00
  KWL_N_0545           JUNCTION  -nan(ind)     0.00   654.67     0  00:00        0.00
  KWL_N_0546           JUNCTION  -nan(ind)     0.00   659.40     0  00:00        0.00
  KWL_N_0547           JUNCTION  -nan(ind)     0.00   660.62     0  00:00        0.00
  KWL_N_0548           JUNCTION  -nan(ind)     0.00   661.19     0  00:00        0.00
  KWL_N_0549           JUNCTION  -nan(ind)     0.00   667.59     0  00:00        0.00
  KWL_N_0550           JUNCTION  -nan(ind)     0.00   666.13     0  00:00        0.00
  KWL_N_0551           JUNCTION  -nan(ind)     0.00   665.66     0  00:00        0.00
  KWL_N_0552           JUNCTION  -nan(ind)     0.00   665.87     0  00:00        0.00
  KWL_N_0553           JUNCTION  -nan(ind)     0.00   655.01     0  00:00        0.00
  KWL_N_0554           JUNCTION  -nan(ind)     0.00   654.52     0  00:00        0.00
  KWL_N_0555           JUNCTION  -nan(ind)     0.00   654.12     0  00:00        0.00
  KWL_N_0556           JUNCTION  -nan(ind)     0.00   653.71     0  00:00        0.00
  KWL_N_0557           JUNCTION  -nan(ind)     0.00   655.58     0  00:00        0.00
  KWL_N_0558           JUNCTION  -nan(ind)     0.00   655.16     0  00:00        0.00
  KWL_N_0559           JUNCTION  -nan(ind)     0.00   654.80     0  00:00        0.00
  KWL_N_0560           JUNCTION  -nan(ind)     0.00   654.57     0  00:00        0.00
  KWL_N_0562           JUNCTION  -nan(ind)     0.00   656.64     0  00:00        0.00
  KWL_N_0563           JUNCTION  -nan(ind)     0.00   656.87     0  00:00        0.00
  KWL_N_0564           JUNCTION  -nan(ind)     0.00   657.63     0  00:00        0.00
  KWL_N_0565           JUNCTION  -nan(ind)     0.00   657.29     0  00:00        0.00
  KWL_N_0566           JUNCTION  -nan(ind)     0.00   657.65     0  00:00        0.00
  KWL_N_0567           JUNCTION  -nan(ind)     0.00   658.38     0  00:00        0.00
  KWL_N_0568           JUNCTION  -nan(ind)     0.00   659.16     0  00:00        0.00
  KWL_N_0569           JUNCTION  -nan(ind)     0.00   658.08     0  00:00        0.00
  KWL_N_0570           JUNCTION  -nan(ind)     0.00   660.28     0  00:00        0.00
  KWL_N_0571           JUNCTION  -nan(ind)     0.00   658.49     0  00:00        0.00
  KWL_N_0572           JUNCTION  -nan(ind)     0.00   659.48     0  00:00        0.00
  KWL_N_0573           JUNCTION  -nan(ind)     0.00   658.88     0  00:00        0.00
  KWL_N_0574           JUNCTION  -nan(ind)     0.00   660.34     0  00:00        0.00
  KWL_N_0575           JUNCTION  -nan(ind)     0.00   659.92     0  00:00        0.00
  KWL_N_0576           JUNCTION  -nan(ind)     0.00   659.85     0  00:00        0.00
  KWL_N_0577           JUNCTION  -nan(ind)     0.00   660.38     0  00:00        0.00
  KWL_N_0578           JUNCTION  -nan(ind)     0.00   660.84     0  00:00        0.00
  KWL_N_0579           JUNCTION  -nan(ind)     0.00   661.36     0  00:00        0.00
  KWL_N_0580           JUNCTION  -nan(ind)     0.00   662.04     0  00:00        0.00
  KWL_N_0581           JUNCTION  -nan(ind)     0.00   662.15     0  00:00        0.00
  KWL_N_0582           JUNCTION  -nan(ind)     0.00   662.53     0  00:00        0.00
  KWL_N_0583           JUNCTION  -nan(ind)     0.00   662.98     0  00:00        0.00
  KWL_N_0584           JUNCTION  -nan(ind)     0.00   664.30     0  00:00        0.00
  KWL_N_0585           JUNCTION  -nan(ind)     0.00   665.18     0  00:00        0.00
  KWL_N_0586           JUNCTION  -nan(ind)     0.00   660.66     0  00:00        0.00
  KWL_N_0587           JUNCTION  -nan(ind)     0.00   661.21     0  00:00        0.00
  KWL_N_0588           JUNCTION  -nan(ind)     0.00   662.12     0  00:00        0.00
  KWL_N_0589           JUNCTION  -nan(ind)     0.00   661.75     0  00:00        0.00
  KWL_N_0590           JUNCTION  -nan(ind)     0.00   663.18     0  00:00        0.00
  KWL_N_0591           JUNCTION  -nan(ind)     0.00   663.22     0  00:00        0.00
  KWL_N_0592           JUNCTION  -nan(ind)     0.00   661.95     0  00:00        0.00
  KWL_N_0593           JUNCTION  -nan(ind)     0.00   663.44     0  00:00        0.00
  KWL_N_0594           JUNCTION  -nan(ind)     0.00   661.05     0  00:00        0.00
  KWL_N_0595           JUNCTION  -nan(ind)     0.00   660.48     0  00:00        0.00
  KWL_N_0596           JUNCTION  -nan(ind)     0.00   660.29     0  00:00        0.00
  KWL_N_0597           JUNCTION  -nan(ind)     0.00   660.25     0  00:00        0.00
  KWL_N_0598           JUNCTION  -nan(ind)     0.00   660.02     0  00:00        0.00
  KWL_N_0599           JUNCTION  -nan(ind)     0.00   659.43     0  00:00        0.00
  KWL_N_0600           JUNCTION  -nan(ind)     0.00   658.96     0  00:00        0.00
  KWL_N_0601           JUNCTION  -nan(ind)     0.00   658.36     0  00:00        0.00
  KWL_N_0602           JUNCTION  -nan(ind)     0.00   657.72     0  00:00        0.00
  KWL_N_0603           JUNCTION  -nan(ind)     0.00   657.40     0  00:00        0.00
  KWL_N_0604           JUNCTION  -nan(ind)     0.00   656.43     0  00:00        0.00
  KWL_N_0605           JUNCTION  -nan(ind)     0.00   656.27     0  00:00        0.00
  KWL_N_0606           JUNCTION  -nan(ind)     0.00   657.38     0  00:00        0.00
  KWL_N_0607           JUNCTION  -nan(ind)     0.00   657.92     0  00:00        0.00
  KWL_N_0608           JUNCTION  -nan(ind)     0.00   654.02     0  00:00        0.00
  KWL_N_0609           JUNCTION  -nan(ind)     0.00   654.40     0  00:00        0.00
  KWL_N_0610           JUNCTION  -nan(ind)     0.00   654.65     0  00:00        0.00
  KWL_N_0611           JUNCTION  -nan(ind)     0.00   654.93     0  00:00        0.00
  KWL_N_0612           JUNCTION  -nan(ind)     0.00   655.43     0  00:00        0.00
  KWL_N_0613           JUNCTION  -nan(ind)     0.00   655.84     0  00:00        0.00
  KWL_N_0614           JUNCTION  -nan(ind)     0.00   656.23     0  00:00        0.00
  KWL_N_0615           JUNCTION  -nan(ind)     0.00   656.81     0  00:00        0.00
  KWL_N_0616           JUNCTION  -nan(ind)     0.00   657.61     0  00:00        0.00
  KWL_N_0617           JUNCTION  -nan(ind)     0.00   658.47     0  00:00        0.00
  KWL_N_0618           JUNCTION  -nan(ind)     0.00   659.37     0  00:00        0.00
  KWL_N_0619           JUNCTION  -nan(ind)     0.00   660.83     0  00:00        0.00
  KWL_N_0620           JUNCTION  -nan(ind)     0.00   661.96     0  00:00        0.00
  KWL_N_0621           JUNCTION  -nan(ind)     0.00   663.93     0  00:00        0.00
  KWL_N_0622           JUNCTION  -nan(ind)     0.00   663.36     0  00:00        0.00
  KWL_N_0623           JUNCTION  -nan(ind)     0.00   662.77     0  00:00        0.00
  KWL_N_0624           JUNCTION  -nan(ind)     0.00   663.34     0  00:00        0.00
  KWL_N_0625           JUNCTION  -nan(ind)     0.00   663.72     0  00:00        0.00
  KWL_N_0626           JUNCTION  -nan(ind)     0.00   664.35     0  00:00        0.00
  KWL_N_0627           JUNCTION  -nan(ind)     0.00   665.14     0  00:00        0.00
  KWL_N_0628           JUNCTION  -nan(ind)     0.00   665.62     0  00:00        0.00
  KWL_N_0629           JUNCTION  -nan(ind)     0.00   659.91     0  00:00        0.00
  KWL_N_0630           JUNCTION  -nan(ind)     0.00   657.53     0  00:00        0.00
  KWL_N_0631           JUNCTION  -nan(ind)     0.00   658.24     0  00:00        0.00
  KWL_N_0632           JUNCTION  -nan(ind)     0.00   659.53     0  00:00        0.00
  KWL_N_0633           JUNCTION  -nan(ind)     0.00   660.17     0  00:00        0.00
  KWL_N_0634           JUNCTION  -nan(ind)     0.00   661.56     0  00:00        0.00
  KWL_N_0635           JUNCTION  -nan(ind)     0.00   661.27     0  00:00        0.00
  KWL_N_0636           JUNCTION  -nan(ind)     0.00   660.41     0  00:00        0.00
  KWL_N_0637           JUNCTION  -nan(ind)     0.00   659.71     0  00:00        0.00
  KWL_N_0638           JUNCTION  -nan(ind)     0.00   657.95     0  00:00        0.00
  KWL_N_0639           JUNCTION  -nan(ind)     0.00   658.49     0  00:00        0.00
  KWL_N_0640           JUNCTION  -nan(ind)     0.00   658.82     0  00:00        0.00
  KWL_N_0641           JUNCTION  -nan(ind)     0.00   657.06     0  00:00        0.00
  KWL_N_0642           JUNCTION  -nan(ind)     0.00   656.55     0  00:00        0.00
  KWL_N_0643           JUNCTION  -nan(ind)     0.00   655.80     0  00:00        0.00
  KWL_N_0644           JUNCTION  -nan(ind)     0.00   657.48     0  00:00        0.00
  KWL_N_0645           JUNCTION  -nan(ind)     0.00   656.28     0  00:00        0.00
  KWL_N_0646           JUNCTION  -nan(ind)     0.00   655.75     0  00:00        0.00
  KWL_N_0647           JUNCTION  -nan(ind)     0.00   652.36     0  00:00        0.00
  KWL_N_0648           JUNCTION  -nan(ind)     0.00   654.86     0  00:00        0.00
  KWL_N_0649           JUNCTION  -nan(ind)     0.00   656.75     0  00:00        0.00
  KWL_N_0650           JUNCTION  -nan(ind)     0.00   657.00     0  00:00        0.00
  KWL_N_0651           JUNCTION  -nan(ind)     0.00   657.20     0  00:00        0.00
  KWL_N_0652           JUNCTION  -nan(ind)     0.00   657.69     0  00:00        0.00
  KWL_N_0653           JUNCTION  -nan(ind)     0.00   658.08     0  00:00        0.00
  KWL_N_0654           JUNCTION  -nan(ind)     0.00   653.97     0  00:00        0.00
  KWL_N_0655           JUNCTION  -nan(ind)     0.00   654.07     0  00:00        0.00
  KWL_N_0656           JUNCTION  -nan(ind)     0.00   655.64     0  00:00        0.00
  KWL_N_0657           JUNCTION  -nan(ind)     0.00   655.09     0  00:00        0.00
  KWL_N_0658           JUNCTION  -nan(ind)     0.00   655.23     0  00:00        0.00
  KWL_N_0659           JUNCTION  -nan(ind)     0.00   655.45     0  00:00        0.00
  KWL_N_0660           JUNCTION  -nan(ind)     0.00   655.03     0  00:00        0.00
  KWL_N_0661           JUNCTION  -nan(ind)     0.00   655.59     0  00:00        0.00
  KWL_N_0662           JUNCTION  -nan(ind)     0.00   656.04     0  00:00        0.00
  KWL_N_0663           JUNCTION  -nan(ind)     0.00   656.38     0  00:00        0.00
  KWL_N_0664           JUNCTION  -nan(ind)     0.00   656.85     0  00:00        0.00
  KWL_N_0665           JUNCTION  -nan(ind)     0.00   653.43     0  00:00        0.00
  KWL_N_0666           JUNCTION  -nan(ind)     0.00   653.56     0  00:00        0.00
  KWL_N_0667           JUNCTION  -nan(ind)     0.00   653.76     0  00:00        0.00
  KWL_N_0668           JUNCTION  -nan(ind)     0.00   653.98     0  00:00        0.00
  KWL_N_0669           JUNCTION  -nan(ind)     0.00   653.93     0  00:00        0.00
  KWL_N_0670           JUNCTION  -nan(ind)     0.00   655.69     0  00:00        0.00
  KWL_N_0671           JUNCTION  -nan(ind)     0.00   655.36     0  00:00        0.00
  KWL_N_0672           JUNCTION  -nan(ind)     0.00   655.22     0  00:00        0.00
  KWL_N_0673           JUNCTION  -nan(ind)     0.00   655.04     0  00:00        0.00
  KWL_N_0674           JUNCTION  -nan(ind)     0.00   654.77     0  00:00        0.00
  KWL_N_0675           JUNCTION  -nan(ind)     0.00   654.48     0  00:00        0.00
  KWL_N_0676           JUNCTION  -nan(ind)     0.00   657.17     0  00:00        0.00
  KWL_N_0677           JUNCTION  -nan(ind)     0.00   657.78     0  00:00        0.00
  KWL_N_0678           JUNCTION  -nan(ind)     0.00   655.96     0  00:00        0.00
  KWL_N_0679           JUNCTION  -nan(ind)     0.00   658.66     0  00:00        0.00
  KWL_N_0680           JUNCTION  -nan(ind)     0.00   658.16     0  00:00        0.00
  KWL_N_0681           JUNCTION  -nan(ind)     0.00   656.29     0  00:00        0.00
  KWL_N_0682           JUNCTION  -nan(ind)     0.00   656.56     0  00:00        0.00
  KWL_N_0683           JUNCTION  -nan(ind)     0.00   654.80     0  00:00        0.00
  KWL_N_0684           JUNCTION  -nan(ind)     0.00   659.98     0  00:00        0.00
  KWL_N_0685           JUNCTION  -nan(ind)     0.00   659.58     0  00:00        0.00
  KWL_N_0686           JUNCTION  -nan(ind)     0.00   661.79     0  00:00        0.00
  KWL_N_0687           JUNCTION  -nan(ind)     0.00   663.53     0  00:00        0.00
  KWL_N_0688           JUNCTION  -nan(ind)     0.00   662.08     0  00:00        0.00
  KWL_N_0689           JUNCTION  -nan(ind)     0.00   660.90     0  00:00        0.00
  KWL_N_0690           JUNCTION  -nan(ind)     0.00   662.10     0  00:00        0.00
  KWL_N_0691           JUNCTION  -nan(ind)     0.00   662.72     0  00:00        0.00
  KWL_N_0692           JUNCTION  -nan(ind)     0.00   666.66     0  00:00        0.00
  KWL_N_0693           JUNCTION  -nan(ind)     0.00   662.35     0  00:00        0.00
  KWL_N_0694           JUNCTION  -nan(ind)     0.00   658.87     0  00:00        0.00
  KWL_N_0695           JUNCTION  -nan(ind)     0.00   656.65     0  00:00        0.00
  KWL_N_0696           JUNCTION  -nan(ind)     0.00   655.23     0  00:00        0.00
  KWL_N_0697           JUNCTION  -nan(ind)     0.00   654.54     0  00:00        0.00
  KWL_N_0698           JUNCTION  -nan(ind)     0.00   654.24     0  00:00        0.00
  KWL_N_0699           JUNCTION  -nan(ind)     0.00   653.66     0  00:00        0.00
  KWL_N_0700           JUNCTION  -nan(ind)     0.00   652.90     0  00:00        0.00
  KWL_N_0701           JUNCTION  -nan(ind)     0.00   652.13     0  00:00        0.00
  KWL_N_0702           JUNCTION  -nan(ind)     0.00   654.19     0  00:00        0.00
  KWL_N_0703           JUNCTION  -nan(ind)     0.00   654.23     0  00:00        0.00
  KWL_N_0704           JUNCTION  -nan(ind)     0.00   654.37     0  00:00        0.00
  KWL_N_0705           JUNCTION  -nan(ind)     0.00   654.81     0  00:00        0.00
  KWL_N_0706           JUNCTION  -nan(ind)     0.00   654.66     0  00:00        0.00
  KWL_N_0707           JUNCTION  -nan(ind)     0.00   654.89     0  00:00        0.00
  KWL_N_0708           JUNCTION  -nan(ind)     0.00   655.55     0  00:00        0.00
  KWL_N_0709           JUNCTION  -nan(ind)     0.00   653.37     0  00:00        0.00
  KWL_N_0710           JUNCTION  -nan(ind)     0.00   653.26     0  00:00        0.00
  KWL_N_0711           JUNCTION  -nan(ind)     0.00   653.14     0  00:00        0.00
  KWL_N_0712           JUNCTION  -nan(ind)     0.00   689.79     0  00:00        0.00
  KWL_N_0713           JUNCTION  -nan(ind)     0.00   688.45     0  00:00        0.00
  KWL_N_0714           JUNCTION  -nan(ind)     0.00   688.05     0  00:00        0.00
  KWL_N_0715           JUNCTION  -nan(ind)     0.00   692.52     0  00:00        0.00
  KWL_N_0716           JUNCTION  -nan(ind)     0.00   677.59     0  00:00        0.00
  KWL_N_0717           JUNCTION  -nan(ind)     0.00   676.07     0  00:00        0.00
  KWL_N_0718           JUNCTION  -nan(ind)     0.00   682.73     0  00:00        0.00
  KWL_N_0719           JUNCTION  -nan(ind)     0.00   679.77     0  00:00        0.00
  KWL_N_0720           JUNCTION  -nan(ind)     0.00   676.46     0  00:00        0.00
  KWL_N_0721           JUNCTION  -nan(ind)     0.00   673.81     0  00:00        0.00
  KWL_N_0722           JUNCTION  -nan(ind)     0.00   673.40     0  00:00        0.00
  KWL_N_0723           JUNCTION  -nan(ind)     0.00   673.02     0  00:00        0.00
  KWL_N_0724           JUNCTION  -nan(ind)     0.00   675.61     0  00:00        0.00
  KWL_N_0725           JUNCTION  -nan(ind)     0.00   672.54     0  00:00        0.00
  KWL_N_0726           JUNCTION  -nan(ind)     0.00   674.21     0  00:00        0.00
  KWL_N_0727           JUNCTION  -nan(ind)     0.00   682.02     0  00:00        0.00
  KWL_N_0728           JUNCTION  -nan(ind)     0.00   681.83     0  00:00        0.00
  KWL_N_0729           JUNCTION  -nan(ind)     0.00   680.00     0  00:00        0.00
  KWL_N_0730           JUNCTION  -nan(ind)     0.00   686.65     0  00:00        0.00
  KWL_N_0731           JUNCTION  -nan(ind)     0.00   684.08     0  00:00        0.00
  KWL_N_0732           JUNCTION  -nan(ind)     0.00   678.44     0  00:00        0.00
  KWL_N_0733           JUNCTION  -nan(ind)     0.00   681.54     0  00:00        0.00
  KWL_N_0734           JUNCTION  -nan(ind)     0.00   677.99     0  00:00        0.00
  KWL_N_0735           JUNCTION  -nan(ind)     0.00   677.01     0  00:00        0.00
  KWL_N_0736           JUNCTION  -nan(ind)     0.00   676.53     0  00:00        0.00
  KWL_N_0737           JUNCTION  -nan(ind)     0.00   674.00     0  00:00        0.00
  KWL_N_0738           JUNCTION  -nan(ind)     0.00   673.41     0  00:00        0.00
  KWL_N_0739           JUNCTION  -nan(ind)     0.00   672.93     0  00:00        0.00
  KWL_N_0740           JUNCTION  -nan(ind)     0.00   672.48     0  00:00        0.00
  KWL_N_0741           JUNCTION  -nan(ind)     0.00   657.96     0  00:00        0.00
  KWL_N_0742           JUNCTION  -nan(ind)     0.00   657.43     0  00:00        0.00
  KWL_N_0743           JUNCTION  -nan(ind)     0.00   659.75     0  00:00        0.00
  KWL_N_0744           JUNCTION  -nan(ind)     0.00   661.02     0  00:00        0.00
  KWL_N_0745           JUNCTION  -nan(ind)     0.00   662.18     0  00:00        0.00
  KWL_N_0746           JUNCTION  -nan(ind)     0.00   666.16     0  00:00        0.00
  KWL_N_0747           JUNCTION  -nan(ind)     0.00   665.40     0  00:00        0.00
  KWL_N_0748           JUNCTION  -nan(ind)     0.00   665.00     0  00:00        0.00
  KWL_N_0749           JUNCTION  -nan(ind)     0.00   663.75     0  00:00        0.00
  KWL_N_0750           JUNCTION  -nan(ind)     0.00   664.77     0  00:00        0.00
  KWL_N_0751           JUNCTION  -nan(ind)     0.00   659.26     0  00:00        0.00
  KWL_N_0752           JUNCTION  -nan(ind)     0.00   658.62     0  00:00        0.00
  KWL_N_0753           JUNCTION  -nan(ind)     0.00   661.39     0  00:00        0.00
  KWL_N_0754           JUNCTION  -nan(ind)     0.00   662.14     0  00:00        0.00
  KWL_N_0755           JUNCTION  -nan(ind)     0.00   659.55     0  00:00        0.00
  KWL_N_0756           JUNCTION  -nan(ind)     0.00   660.69     0  00:00        0.00
  KWL_N_0757           JUNCTION  -nan(ind)     0.00   665.05     0  00:00        0.00
  KWL_N_0758           JUNCTION  -nan(ind)     0.00   661.95     0  00:00        0.00
  KWL_N_0759           JUNCTION  -nan(ind)     0.00   665.13     0  00:00        0.00
  KWL_N_0760           JUNCTION  -nan(ind)     0.00   662.77     0  00:00        0.00
  KWL_N_0761           JUNCTION  -nan(ind)     0.00   664.39     0  00:00        0.00
  KWL_N_0762           JUNCTION  -nan(ind)     0.00   665.86     0  00:00        0.00
  KWL_N_0763           JUNCTION  -nan(ind)     0.00   670.12     0  00:00        0.00
  KWL_N_0764           JUNCTION  -nan(ind)     0.00   667.54     0  00:00        0.00
  KWL_N_0765           JUNCTION  -nan(ind)     0.00   671.92     0  00:00        0.00
  KWL_N_0766           JUNCTION  -nan(ind)     0.00   672.87     0  00:00        0.00
  KWL_N_0767           JUNCTION  -nan(ind)     0.00   671.62     0  00:00        0.00
  KWL_N_0768           JUNCTION  -nan(ind)     0.00   671.11     0  00:00        0.00
  KWL_N_0769           JUNCTION  -nan(ind)     0.00   671.92     0  00:00        0.00
  KWL_N_0770           JUNCTION  -nan(ind)     0.00   673.81     0  00:00        0.00
  KWL_N_0771           JUNCTION  -nan(ind)     0.00   676.92     0  00:00        0.00
  KWL_N_0772           JUNCTION  -nan(ind)     0.00   656.93     0  00:00        0.00
  KWL_N_0773           JUNCTION  -nan(ind)     0.00   658.93     0  00:00        0.00
  KWL_N_0774           JUNCTION  -nan(ind)     0.00   660.11     0  00:00        0.00
  KWL_N_0775           JUNCTION  -nan(ind)     0.00   661.93     0  00:00        0.00
  KWL_N_0776           JUNCTION  -nan(ind)     0.00   661.45     0  00:00        0.00
  KWL_N_0777           JUNCTION  -nan(ind)     0.00   661.84     0  00:00        0.00
  KWL_N_0778           JUNCTION  -nan(ind)     0.00   663.47     0  00:00        0.00
  KWL_N_0779           JUNCTION  -nan(ind)     0.00   664.26     0  00:00        0.00
  KWL_N_0780           JUNCTION  -nan(ind)     0.00   665.23     0  00:00        0.00
  KWL_N_0781           JUNCTION  -nan(ind)     0.00   666.00     0  00:00        0.00
  KWL_N_0782           JUNCTION  -nan(ind)     0.00   662.84     0  00:00        0.00
  KWL_N_0783           JUNCTION  -nan(ind)     0.00   663.00     0  00:00        0.00
  KWL_N_0784           JUNCTION  -nan(ind)     0.00   667.37     0  00:00        0.00
  KWL_N_0785           JUNCTION  -nan(ind)     0.00   669.28     0  00:00        0.00
  KWL_N_0786           JUNCTION  -nan(ind)     0.00   671.29     0  00:00        0.00
  KWL_N_0787           JUNCTION  -nan(ind)     0.00   672.04     0  00:00        0.00
  KWL_N_0788           JUNCTION  -nan(ind)     0.00   675.33     0  00:00        0.00
  KWL_N_0789           JUNCTION  -nan(ind)     0.00   683.88     0  00:00        0.00
  KWL_N_0790           JUNCTION  -nan(ind)     0.00   690.40     0  00:00        0.00
  KWL_N_0791           JUNCTION  -nan(ind)     0.00   691.65     0  00:00        0.00
  KWL_N_0792           JUNCTION  -nan(ind)     0.00   695.11     0  00:00        0.00
  KWL_N_0793           JUNCTION  -nan(ind)     0.00   698.77     0  00:00        0.00
  KWL_N_0794           JUNCTION  -nan(ind)     0.00   703.16     0  00:00        0.00
  KWL_N_0795           JUNCTION  -nan(ind)     0.00   705.45     0  00:00        0.00
  KWL_N_0796           JUNCTION  -nan(ind)     0.00   688.99     0  00:00        0.00
  KWL_N_0797           JUNCTION  -nan(ind)     0.00   708.49     0  00:00        0.00
  KWL_N_0798           JUNCTION  -nan(ind)     0.00   708.32     0  00:00        0.00
  KWL_N_0799           JUNCTION  -nan(ind)     0.00   709.42     0  00:00        0.00
  KWL_N_0800           JUNCTION  -nan(ind)     0.00   707.95     0  00:00        0.00
  KWL_N_0801           JUNCTION  -nan(ind)     0.00   707.72     0  00:00        0.00
  KWL_N_0802           JUNCTION  -nan(ind)     0.00   707.46     0  00:00        0.00
  KWL_N_0803           JUNCTION  -nan(ind)     0.00   706.41     0  00:00        0.00
  KWL_N_0804           JUNCTION  -nan(ind)     0.00   706.65     0  00:00        0.00
  KWL_N_0805           JUNCTION  -nan(ind)     0.00   705.95     0  00:00        0.00
  KWL_N_0806           JUNCTION  -nan(ind)     0.00   704.53     0  00:00        0.00
  KWL_N_0807           JUNCTION  -nan(ind)     0.00   704.25     0  00:00        0.00
  KWL_N_0808           JUNCTION  -nan(ind)     0.00   697.37     0  00:00        0.00
  KWL_N_0809           JUNCTION  -nan(ind)     0.00   695.90     0  00:00        0.00
  KWL_N_0810           JUNCTION  -nan(ind)     0.00   690.90     0  00:00        0.00
  KWL_N_0811           JUNCTION  -nan(ind)     0.00   692.03     0  00:00        0.00
  KWL_N_0812           JUNCTION  -nan(ind)     0.00   687.95     0  00:00        0.00
  KWL_N_0813           JUNCTION  -nan(ind)     0.00   688.40     0  00:00        0.00
  KWL_N_0814           JUNCTION  -nan(ind)     0.00   683.47     0  00:00        0.00
  KWL_N_0815           JUNCTION  -nan(ind)     0.00   694.86     0  00:00        0.00
  KWL_N_0816           JUNCTION  -nan(ind)     0.00   694.01     0  00:00        0.00
  KWL_N_0817           JUNCTION  -nan(ind)     0.00   693.35     0  00:00        0.00
  KWL_N_0818           JUNCTION  -nan(ind)     0.00   691.06     0  00:00        0.00
  KWL_N_0819           JUNCTION  -nan(ind)     0.00   690.52     0  00:00        0.00
  KWL_N_0820           JUNCTION  -nan(ind)     0.00   688.28     0  00:00        0.00
  KWL_N_0821           JUNCTION  -nan(ind)     0.00   687.87     0  00:00        0.00
  KWL_N_0822           JUNCTION  -nan(ind)     0.00   687.41     0  00:00        0.00
  KWL_N_0823           JUNCTION  -nan(ind)     0.00   682.59     0  00:00        0.00
  KWL_N_0824           JUNCTION  -nan(ind)     0.00   682.04     0  00:00        0.00
  KWL_N_0826           JUNCTION  -nan(ind)     0.00   699.81     0  00:00        0.00
  KWL_N_0827           JUNCTION  -nan(ind)     0.00   696.73     0  00:00        0.00
  KWL_N_0828           JUNCTION  -nan(ind)     0.00   693.96     0  00:00        0.00
  KWL_N_0829           JUNCTION  -nan(ind)     0.00   691.95     0  00:00        0.00
  KWL_N_0830           JUNCTION  -nan(ind)     0.00   691.52     0  00:00        0.00
  KWL_N_0831           JUNCTION  -nan(ind)     0.00   688.35     0  00:00        0.00
  KWL_N_0832           JUNCTION  -nan(ind)     0.00   684.80     0  00:00        0.00
  KWL_N_0833           JUNCTION  -nan(ind)     0.00   686.45     0  00:00        0.00
  KWL_N_0834           JUNCTION  -nan(ind)     0.00   688.72     0  00:00        0.00
  KWL_N_0835           JUNCTION  -nan(ind)     0.00   699.96     0  00:00        0.00
  KWL_N_0836           JUNCTION  -nan(ind)     0.00   704.88     0  00:00        0.00
  KWL_N_0837           JUNCTION  -nan(ind)     0.00   695.39     0  00:00        0.00
  KWL_N_0838           JUNCTION  -nan(ind)     0.00   691.75     0  00:00        0.00
  KWL_N_0839           JUNCTION  -nan(ind)     0.00   701.21     0  00:00        0.00
  KWL_N_0840           JUNCTION  -nan(ind)     0.00   705.51     0  00:00        0.00
  KWL_N_0841           JUNCTION  -nan(ind)     0.00   697.19     0  00:00        0.00
  KWL_N_0842           JUNCTION  -nan(ind)     0.00   695.36     0  00:00        0.00
  KWL_N_0843           JUNCTION  -nan(ind)     0.00   698.71     0  00:00        0.00
  KWL_N_0844           JUNCTION  -nan(ind)     0.00   700.75     0  00:00        0.00
  KWL_N_0845           JUNCTION  -nan(ind)     0.00   703.18     0  00:00        0.00
  KWL_N_0846           JUNCTION  -nan(ind)     0.00   706.68     0  00:00        0.00
  KWL_N_0847           JUNCTION  -nan(ind)     0.00   707.36     0  00:00        0.00
  KWL_N_0848           JUNCTION  -nan(ind)     0.00   704.00     0  00:00        0.00
  KWL_N_0849           JUNCTION  -nan(ind)     0.00   702.34     0  00:00        0.00
  KWL_N_0850           JUNCTION  -nan(ind)     0.00   703.41     0  00:00        0.00
  KWL_N_0851           JUNCTION  -nan(ind)     0.00   706.59     0  00:00        0.00
  KWL_N_0852           JUNCTION  -nan(ind)     0.00   707.51     0  00:00        0.00
  KWL_N_0853           JUNCTION  -nan(ind)     0.00   711.72     0  00:00        0.00
  KWL_N_0854           JUNCTION  -nan(ind)     0.00   709.88     0  00:00        0.00
  KWL_N_0855           JUNCTION  -nan(ind)     0.00   705.74     0  00:00        0.00
  KWL_N_0857           JUNCTION  -nan(ind)     0.00   713.23     0  00:00        0.00
  KWL_N_0858           JUNCTION  -nan(ind)     0.00   714.54     0  00:00        0.00
  KWL_N_0859           JUNCTION  -nan(ind)     0.00   712.83     0  00:00        0.00
  KWL_N_0860           JUNCTION  -nan(ind)     0.00   710.57     0  00:00        0.00
  KWL_N_0861           JUNCTION  -nan(ind)     0.00   709.11     0  00:00        0.00
  KWL_N_0862           JUNCTION  -nan(ind)     0.00   708.53     0  00:00        0.00
  KWL_N_0863           JUNCTION  -nan(ind)     0.00   708.07     0  00:00        0.00
  KWL_N_0864           JUNCTION  -nan(ind)     0.00   708.15     0  00:00        0.00
  KWL_N_0865           JUNCTION  -nan(ind)     0.00   706.13     0  00:00        0.00
  KWL_N_0866           JUNCTION  -nan(ind)     0.00   701.76     0  00:00        0.00
  KWL_N_0867           JUNCTION  -nan(ind)     0.00   696.02     0  00:00        0.00
  KWL_N_0868           JUNCTION  -nan(ind)     0.00   692.06     0  00:00        0.00
  KWL_N_0869           JUNCTION  -nan(ind)     0.00   687.58     0  00:00        0.00
  KWL_N_0870           JUNCTION  -nan(ind)     0.00   685.01     0  00:00        0.00
  KWL_N_0871           JUNCTION  -nan(ind)     0.00   682.65     0  00:00        0.00
  KWL_N_0872           JUNCTION  -nan(ind)     0.00   681.36     0  00:00        0.00
  KWL_N_0873           JUNCTION  -nan(ind)     0.00   680.07     0  00:00        0.00
  KWL_N_0874           JUNCTION  -nan(ind)     0.00   678.09     0  00:00        0.00
  KWL_N_0875           JUNCTION  -nan(ind)     0.00   677.74     0  00:00        0.00
  KWL_N_0876           JUNCTION  -nan(ind)     0.00   678.52     0  00:00        0.00
  KWL_N_0877           JUNCTION  -nan(ind)     0.00   679.71     0  00:00        0.00
  KWL_N_0878           JUNCTION  -nan(ind)     0.00   679.28     0  00:00        0.00
  KWL_N_0879           JUNCTION  -nan(ind)     0.00   668.46     0  00:00        0.00
  KWL_N_0881           JUNCTION  -nan(ind)     0.00   664.25     0  00:00        0.00
  KWL_N_0882           JUNCTION  -nan(ind)     0.00   663.74     0  00:00        0.00
  KWL_N_0883           JUNCTION  -nan(ind)     0.00   662.93     0  00:00        0.00
  KWL_N_0884           JUNCTION  -nan(ind)     0.00   662.41     0  00:00        0.00
  KWL_N_0885           JUNCTION  -nan(ind)     0.00   661.99     0  00:00        0.00
  KWL_N_0886           JUNCTION  -nan(ind)     0.00   661.30     0  00:00        0.00
  KWL_N_0887           JUNCTION  -nan(ind)     0.00   660.49     0  00:00        0.00
  KWL_N_0888           JUNCTION  -nan(ind)     0.00   665.08     0  00:00        0.00
  KWL_N_0889           JUNCTION  -nan(ind)     0.00   662.14     0  00:00        0.00
  KWL_N_0890           JUNCTION  -nan(ind)     0.00   658.77     0  00:00        0.00
  KWL_N_0891           JUNCTION  -nan(ind)     0.00   658.12     0  00:00        0.00
  KWL_N_0892           JUNCTION  -nan(ind)     0.00   660.06     0  00:00        0.00
  KWL_N_0893           JUNCTION  -nan(ind)     0.00   660.20     0  00:00        0.00
  KWL_N_0894           JUNCTION  -nan(ind)     0.00   660.59     0  00:00        0.00
  KWL_N_0895           JUNCTION  -nan(ind)     0.00   660.98     0  00:00        0.00
  KWL_N_0896           JUNCTION  -nan(ind)     0.00   661.65     0  00:00        0.00
  KWL_N_0897           JUNCTION  -nan(ind)     0.00   661.34     0  00:00        0.00
  KWL_N_0898           JUNCTION  -nan(ind)     0.00   661.44     0  00:00        0.00
  KWL_N_0899           JUNCTION  -nan(ind)     0.00   660.97     0  00:00        0.00
  KWL_N_0900           JUNCTION  -nan(ind)     0.00   660.55     0  00:00        0.00
  KWL_N_0901           JUNCTION  -nan(ind)     0.00   660.32     0  00:00        0.00
  KWL_N_0902           JUNCTION  -nan(ind)     0.00   659.88     0  00:00        0.00
  KWL_N_0903           JUNCTION  -nan(ind)     0.00   659.01     0  00:00        0.00
  KWL_N_0904           JUNCTION  -nan(ind)     0.00   658.53     0  00:00        0.00
  KWL_N_0905           JUNCTION  -nan(ind)     0.00   659.36     0  00:00        0.00
  KWL_N_0906           JUNCTION  -nan(ind)     0.00   659.43     0  00:00        0.00
  KWL_N_0907           JUNCTION  -nan(ind)     0.00   660.02     0  00:00        0.00
[...]
  SEW-1350                1.00   -nan(ind)  -nan(ind)  -nan(ind)  -nan(ind)  -nan(ind)  -nan(ind)  -nan(ind)  -nan(ind)  -nan(ind)
  SEW-1351                1.00   -nan(ind)  -nan(ind)  -nan(ind)  -nan(ind)  -nan(ind)  -nan(ind)  -nan(ind)  -nan(ind)  -nan(ind)
  SEW-1352                1.00   -nan(ind)  -nan(ind)  -nan(ind)  -nan(ind)  -nan(ind)  -nan(ind)  -nan(ind)  -nan(ind)  -nan(ind)
  SEW-1353                1.00   -nan(ind)  -nan(ind)  -nan(ind)  -nan(ind)  -nan(ind)  -nan(ind)  -nan(ind)  -nan(ind)  -nan(ind)
  SEW-1354                1.00   -nan(ind)  -nan(ind)  -nan(ind)  -nan(ind)  -nan(ind)  -nan(ind)  -nan(ind)  -nan(ind)  -nan(ind)
  SEW-1355                1.00   -nan(ind)  -nan(ind)  -nan(ind)  -nan(ind)  -nan(ind)  -nan(ind)  -nan(ind)  -nan(ind)  -nan(ind)
  SEW-1356                1.00   -nan(ind)  -nan(ind)  -nan(ind)  -nan(ind)  -nan(ind)  -nan(ind)  -nan(ind)  -nan(ind)  -nan(ind)
  SEW-1357                1.00   -nan(ind)  -nan(ind)  -nan(ind)  -nan(ind)  -nan(ind)  -nan(ind)  -nan(ind)  -nan(ind)  -nan(ind)
  SEW-1358                1.00   -nan(ind)  -nan(ind)  -nan(ind)  -nan(ind)  -nan(ind)  -nan(ind)  -nan(ind)  -nan(ind)  -nan(ind)
  SEW-1361                1.00   -nan(ind)  -nan(ind)  -nan(ind)  -nan(ind)  -nan(ind)  -nan(ind)  -nan(ind)  -nan(ind)  -nan(ind)
  SEW-1362                1.00   -nan(ind)  -nan(ind)  -nan(ind)  -nan(ind)  -nan(ind)  -nan(ind)  -nan(ind)  -nan(ind)  -nan(ind)
  SEW-1363                1.00   -nan(ind)  -nan(ind)  -nan(ind)  -nan(ind)  -nan(ind)  -nan(ind)  -nan(ind)  -nan(ind)  -nan(ind)
  SEW-1364                1.00   -nan(ind)  -nan(ind)  -nan(ind)  -nan(ind)  -nan(ind)  -nan(ind)  -nan(ind)  -nan(ind)  -nan(ind)
  SEW-1365                1.00   -nan(ind)  -nan(ind)  -nan(ind)  -nan(ind)  -nan(ind)  -nan(ind)  -nan(ind)  -nan(ind)  -nan(ind)
  SEW-1366                1.00   -nan(ind)  -nan(ind)  -nan(ind)  -nan(ind)  -nan(ind)  -nan(ind)  -nan(ind)  -nan(ind)  -nan(ind)
  SEW-1367                1.00   -nan(ind)  -nan(ind)  -nan(ind)  -nan(ind)  -nan(ind)  -nan(ind)  -nan(ind)  -nan(ind)  -nan(ind)
  SEW-1368                1.00   -nan(ind)  -nan(ind)  -nan(ind)  -nan(ind)  -nan(ind)  -nan(ind)  -nan(ind)  -nan(ind)  -nan(ind)
  SEW-1369                1.00   -nan(ind)  -nan(ind)  -nan(ind)  -nan(ind)  -nan(ind)  -nan(ind)  -nan(ind)  -nan(ind)  -nan(ind)
  SEW-1370                1.00   -nan(ind)  -nan(ind)  -nan(ind)  -nan(ind)  -nan(ind)  -nan(ind)  -nan(ind)  -nan(ind)  -nan(ind)
  SEW-1371                1.00   -nan(ind)  -nan(ind)  -nan(ind)  -nan(ind)  -nan(ind)  -nan(ind)  -nan(ind)  -nan(ind)  -nan(ind)
  SEW-1372                1.00   -nan(ind)  -nan(ind)  -nan(ind)  -nan(ind)  -nan(ind)  -nan(ind)  -nan(ind)  -nan(ind)  -nan(ind)
  SEW-1373                1.00   -nan(ind)  -nan(ind)  -nan(ind)  -nan(ind)  -nan(ind)  -nan(ind)  -nan(ind)  -nan(ind)  -nan(ind)
  SEW-1374                1.00   -nan(ind)  -nan(ind)  -nan(ind)  -nan(ind)  -nan(ind)  -nan(ind)  -nan(ind)  -nan(ind)  -nan(ind)
  SEW-1375                1.00   -nan(ind)  -nan(ind)  -nan(ind)  -nan(ind)  -nan(ind)  -nan(ind)  -nan(ind)  -nan(ind)  -nan(ind)
  SEW-1379                1.00   -nan(ind)  -nan(ind)  -nan(ind)  -nan(ind)  -nan(ind)  -nan(ind)  -nan(ind)  -nan(ind)  -nan(ind)
  SEW-1380                1.00   -nan(ind)  -nan(ind)  -nan(ind)  -nan(ind)  -nan(ind)  -nan(ind)  -nan(ind)  -nan(ind)  -nan(ind)
  SEW-1381                1.00   -nan(ind)  -nan(ind)  -nan(ind)  -nan(ind)  -nan(ind)  -nan(ind)  -nan(ind)  -nan(ind)  -nan(ind)
  SEW-1382                1.00   -nan(ind)  -nan(ind)  -nan(ind)  -nan(ind)  -nan(ind)  -nan(ind)  -nan(ind)  -nan(ind)  -nan(ind)
  SEW-1383                1.00   -nan(ind)  -nan(ind)  -nan(ind)  -nan(ind)  -nan(ind)  -nan(ind)  -nan(ind)  -nan(ind)  -nan(ind)
  SEW-1384                1.00   -nan(ind)  -nan(ind)  -nan(ind)  -nan(ind)  -nan(ind)  -nan(ind)  -nan(ind)  -nan(ind)  -nan(ind)
  SEW-1385                1.00   -nan(ind)  -nan(ind)  -nan(ind)  -nan(ind)  -nan(ind)  -nan(ind)  -nan(ind)  -nan(ind)  -nan(ind)
  SEW-1386                1.00   -nan(ind)  -nan(ind)  -nan(ind)  -nan(ind)  -nan(ind)  -nan(ind)  -nan(ind)  -nan(ind)  -nan(ind)
  SEW-1387                1.00   -nan(ind)  -nan(ind)  -nan(ind)  -nan(ind)  -nan(ind)  -nan(ind)  -nan(ind)  -nan(ind)  -nan(ind)
  SEW-1388                1.00   -nan(ind)  -nan(ind)  -nan(ind)  -nan(ind)  -nan(ind)  -nan(ind)  -nan(ind)  -nan(ind)  -nan(ind)
  SEW-1389                1.00   -nan(ind)  -nan(ind)  -nan(ind)  -nan(ind)  -nan(ind)  -nan(ind)  -nan(ind)  -nan(ind)  -nan(ind)
  SEW-1390                1.00   -nan(ind)  -nan(ind)  -nan(ind)  -nan(ind)  -nan(ind)  -nan(ind)  -nan(ind)  -nan(ind)  -nan(ind)
  SEW-1391                1.00   -nan(ind)  -nan(ind)  -nan(ind)  -nan(ind)  -nan(ind)  -nan(ind)  -nan(ind)  -nan(ind)  -nan(ind)
  SEW-1392                1.00   -nan(ind)  -nan(ind)  -nan(ind)  -nan(ind)  -nan(ind)  -nan(ind)  -nan(ind)  -nan(ind)  -nan(ind)
  SEW-1393                1.00   -nan(ind)  -nan(ind)  -nan(ind)  -nan(ind)  -nan(ind)  -nan(ind)  -nan(ind)  -nan(ind)  -nan(ind)
  SEW-1394                1.00   -nan(ind)  -nan(ind)  -nan(ind)  -nan(ind)  -nan(ind)  -nan(ind)  -nan(ind)  -nan(ind)  -nan(ind)
  SEW-1395                1.00   -nan(ind)  -nan(ind)  -nan(ind)  -nan(ind)  -nan(ind)  -nan(ind)  -nan(ind)  -nan(ind)  -nan(ind)
  SEW-1396                1.00   -nan(ind)  -nan(ind)  -nan(ind)  -nan(ind)  -nan(ind)  -nan(ind)  -nan(ind)  -nan(ind)  -nan(ind)
  SEW-1397                1.00   -nan(ind)  -nan(ind)  -nan(ind)  -nan(ind)  -nan(ind)  -nan(ind)  -nan(ind)  -nan(ind)  -nan(ind)
  SEW-1398                1.00   -nan(ind)  -nan(ind)  -nan(ind)  -nan(ind)  -nan(ind)  -nan(ind)  -nan(ind)  -nan(ind)  -nan(ind)
  SEW-1399                1.00   -nan(ind)  -nan(ind)  -nan(ind)  -nan(ind)  -nan(ind)  -nan(ind)  -nan(ind)  -nan(ind)  -nan(ind)
  SEW-1400                1.00   -nan(ind)  -nan(ind)  -nan(ind)  -nan(ind)  -nan(ind)  -nan(ind)  -nan(ind)  -nan(ind)  -nan(ind)
  SEW-1401                1.00   -nan(ind)  -nan(ind)  -nan(ind)  -nan(ind)  -nan(ind)  -nan(ind)  -nan(ind)  -nan(ind)  -nan(ind)
  SEW-1402                1.00   -nan(ind)  -nan(ind)  -nan(ind)  -nan(ind)  -nan(ind)  -nan(ind)  -nan(ind)  -nan(ind)  -nan(ind)
  SEW-1403                1.00   -nan(ind)  -nan(ind)  -nan(ind)  -nan(ind)  -nan(ind)  -nan(ind)  -nan(ind)  -nan(ind)  -nan(ind)
  SEW-1404                1.00   -nan(ind)  -nan(ind)  -nan(ind)  -nan(ind)  -nan(ind)  -nan(ind)  -nan(ind)  -nan(ind)  -nan(ind)
  SEW-1405                1.77   -nan(ind)  -nan(ind)  -nan(ind)  -nan(ind)  -nan(ind)  -nan(ind)  -nan(ind)  -nan(ind)  -nan(ind)
  SEW-1406                1.00   -nan(ind)  -nan(ind)  -nan(ind)  -nan(ind)  -nan(ind)  -nan(ind)  -nan(ind)  -nan(ind)  -nan(ind)
  SEW-1407                1.00   -nan(ind)  -nan(ind)  -nan(ind)  -nan(ind)  -nan(ind)  -nan(ind)  -nan(ind)  -nan(ind)  -nan(ind)
  SEW-1408                1.00   -nan(ind)  -nan(ind)  -nan(ind)  -nan(ind)  -nan(ind)  -nan(ind)  -nan(ind)  -nan(ind)  -nan(ind)
  SEW-1410                1.00   -nan(ind)  -nan(ind)  -nan(ind)  -nan(ind)  -nan(ind)  -nan(ind)  -nan(ind)  -nan(ind)  -nan(ind)
  SEW-1411                1.00   -nan(ind)  -nan(ind)  -nan(ind)  -nan(ind)  -nan(ind)  -nan(ind)  -nan(ind)  -nan(ind)  -nan(ind)
  SEW-1412                1.00   -nan(ind)  -nan(ind)  -nan(ind)  -nan(ind)  -nan(ind)  -nan(ind)  -nan(ind)  -nan(ind)  -nan(ind)
  SEW-1413                1.00   -nan(ind)  -nan(ind)  -nan(ind)  -nan(ind)  -nan(ind)  -nan(ind)  -nan(ind)  -nan(ind)  -nan(ind)
  SEW-1414                1.00   -nan(ind)  -nan(ind)  -nan(ind)  -nan(ind)  -nan(ind)  -nan(ind)  -nan(ind)  -nan(ind)  -nan(ind)
  SEW-1415                1.00   -nan(ind)  -nan(ind)  -nan(ind)  -nan(ind)  -nan(ind)  -nan(ind)  -nan(ind)  -nan(ind)  -nan(ind)
  SEW-1416                1.00   -nan(ind)  -nan(ind)  -nan(ind)  -nan(ind)  -nan(ind)  -nan(ind)  -nan(ind)  -nan(ind)  -nan(ind)
  SEW-1417                1.00   -nan(ind)  -nan(ind)  -nan(ind)  -nan(ind)  -nan(ind)  -nan(ind)  -nan(ind)  -nan(ind)  -nan(ind)
  SEW-1419                1.00   -nan(ind)  -nan(ind)  -nan(ind)  -nan(ind)  -nan(ind)  -nan(ind)  -nan(ind)  -nan(ind)  -nan(ind)
  SEW-1421                1.00   -nan(ind)  -nan(ind)  -nan(ind)  -nan(ind)  -nan(ind)  -nan(ind)  -nan(ind)  -nan(ind)  -nan(ind)
  SEW-1423                1.00   -nan(ind)  -nan(ind)  -nan(ind)  -nan(ind)  -nan(ind)  -nan(ind)  -nan(ind)  -nan(ind)  -nan(ind)
  SEW-1425                1.00   -nan(ind)  -nan(ind)  -nan(ind)  -nan(ind)  -nan(ind)  -nan(ind)  -nan(ind)  -nan(ind)  -nan(ind)
  SEW-1426                1.00   -nan(ind)  -nan(ind)  -nan(ind)  -nan(ind)  -nan(ind)  -nan(ind)  -nan(ind)  -nan(ind)  -nan(ind)
  SEW-1427                1.00   -nan(ind)  -nan(ind)  -nan(ind)  -nan(ind)  -nan(ind)  -nan(ind)  -nan(ind)  -nan(ind)  -nan(ind)
  SEW-1428                1.00   -nan(ind)  -nan(ind)  -nan(ind)  -nan(ind)  -nan(ind)  -nan(ind)  -nan(ind)  -nan(ind)  -nan(ind)
  SEW-1430                1.00   -nan(ind)  -nan(ind)  -nan(ind)  -nan(ind)  -nan(ind)  -nan(ind)  -nan(ind)  -nan(ind)  -nan(ind)
  SEW-1431                1.00   -nan(ind)  -nan(ind)  -nan(ind)  -nan(ind)  -nan(ind)  -nan(ind)  -nan(ind)  -nan(ind)  -nan(ind)
  SEW-1432                1.00   -nan(ind)  -nan(ind)  -nan(ind)  -nan(ind)  -nan(ind)  -nan(ind)  -nan(ind)  -nan(ind)  -nan(ind)
  SEW-1434                1.00   -nan(ind)  -nan(ind)  -nan(ind)  -nan(ind)  -nan(ind)  -nan(ind)  -nan(ind)  -nan(ind)  -nan(ind)
  SEW-1435                1.00   -nan(ind)  -nan(ind)  -nan(ind)  -nan(ind)  -nan(ind)  -nan(ind)  -nan(ind)  -nan(ind)  -nan(ind)
  SEW-1436                1.00   -nan(ind)  -nan(ind)  -nan(ind)  -nan(ind)  -nan(ind)  -nan(ind)  -nan(ind)  -nan(ind)  -nan(ind)
  SEW-1437                1.00   -nan(ind)  -nan(ind)  -nan(ind)  -nan(ind)  -nan(ind)  -nan(ind)  -nan(ind)  -nan(ind)  -nan(ind)
  SEW-1438                1.00   -nan(ind)  -nan(ind)  -nan(ind)  -nan(ind)  -nan(ind)  -nan(ind)  -nan(ind)  -nan(ind)  -nan(ind)
  SEW-1439                1.00   -nan(ind)  -nan(ind)  -nan(ind)  -nan(ind)  -nan(ind)  -nan(ind)  -nan(ind)  -nan(ind)  -nan(ind)
  SEW-1440                1.00   -nan(ind)  -nan(ind)  -nan(ind)  -nan(ind)  -nan(ind)  -nan(ind)  -nan(ind)  -nan(ind)  -nan(ind)
  SEW-1441                1.00   -nan(ind)  -nan(ind)  -nan(ind)  -nan(ind)  -nan(ind)  -nan(ind)  -nan(ind)  -nan(ind)  -nan(ind)
  SEW-1442                1.00   -nan(ind)  -nan(ind)  -nan(ind)  -nan(ind)  -nan(ind)  -nan(ind)  -nan(ind)  -nan(ind)  -nan(ind)
  SEW-1447                1.00   -nan(ind)  -nan(ind)  -nan(ind)  -nan(ind)  -nan(ind)  -nan(ind)  -nan(ind)  -nan(ind)  -nan(ind)
  SEW-1448                1.00   -nan(ind)  -nan(ind)  -nan(ind)  -nan(ind)  -nan(ind)  -nan(ind)  -nan(ind)  -nan(ind)  -nan(ind)
  SEW-1449                1.00   -nan(ind)  -nan(ind)  -nan(ind)  -nan(ind)  -nan(ind)  -nan(ind)  -nan(ind)  -nan(ind)  -nan(ind)
  SEW-1450                1.00   -nan(ind)  -nan(ind)  -nan(ind)  -nan(ind)  -nan(ind)  -nan(ind)  -nan(ind)  -nan(ind)  -nan(ind)
  SEW-1451                1.00   -nan(ind)  -nan(ind)  -nan(ind)  -nan(ind)  -nan(ind)  -nan(ind)  -nan(ind)  -nan(ind)  -nan(ind)
  SEW-1453                1.00   -nan(ind)  -nan(ind)  -nan(ind)  -nan(ind)  -nan(ind)  -nan(ind)  -nan(ind)  -nan(ind)  -nan(ind)
  SEW-1454                1.00   -nan(ind)  -nan(ind)  -nan(ind)  -nan(ind)  -nan(ind)  -nan(ind)  -nan(ind)  -nan(ind)  -nan(ind)
  SEW-1455                1.00   -nan(ind)  -nan(ind)  -nan(ind)  -nan(ind)  -nan(ind)  -nan(ind)  -nan(ind)  -nan(ind)  -nan(ind)
  SEW-1456                1.00   -nan(ind)  -nan(ind)  -nan(ind)  -nan(ind)  -nan(ind)  -nan(ind)  -nan(ind)  -nan(ind)  -nan(ind)
  SEW-1457                1.00   -nan(ind)  -nan(ind)  -nan(ind)  -nan(ind)  -nan(ind)  -nan(ind)  -nan(ind)  -nan(ind)  -nan(ind)
  SEW-1458                1.00   -nan(ind)  -nan(ind)  -nan(ind)  -nan(ind)  -nan(ind)  -nan(ind)  -nan(ind)  -nan(ind)  -nan(ind)
  SEW-1459                1.00   -nan(ind)  -nan(ind)  -nan(ind)  -nan(ind)  -nan(ind)  -nan(ind)  -nan(ind)  -nan(ind)  -nan(ind)
  SEW-1460                1.00   -nan(ind)  -nan(ind)  -nan(ind)  -nan(ind)  -nan(ind)  -nan(ind)  -nan(ind)  -nan(ind)  -nan(ind)
  SEW-1461                1.00   -nan(ind)  -nan(ind)  -nan(ind)  -nan(ind)  -nan(ind)  -nan(ind)  -nan(ind)  -nan(ind)  -nan(ind)
  SEW-1463                1.00   -nan(ind)  -nan(ind)  -nan(ind)  -nan(ind)  -nan(ind)  -nan(ind)  -nan(ind)  -nan(ind)  -nan(ind)
  SEW-1464                1.00   -nan(ind)  -nan(ind)  -nan(ind)  -nan(ind)  -nan(ind)  -nan(ind)  -nan(ind)  -nan(ind)  -nan(ind)
  SEW-1465                1.00   -nan(ind)  -nan(ind)  -nan(ind)  -nan(ind)  -nan(ind)  -nan(ind)  -nan(ind)  -nan(ind)  -nan(ind)
  SEW-1467                1.00   -nan(ind)  -nan(ind)  -nan(ind)  -nan(ind)  -nan(ind)  -nan(ind)  -nan(ind)  -nan(ind)  -nan(ind)
  SEW-1468                1.00   -nan(ind)  -nan(ind)  -nan(ind)  -nan(ind)  -nan(ind)  -nan(ind)  -nan(ind)  -nan(ind)  -nan(ind)
  SEW-1469                1.00   -nan(ind)  -nan(ind)  -nan(ind)  -nan(ind)  -nan(ind)  -nan(ind)  -nan(ind)  -nan(ind)  -nan(ind)
  SEW-1470                1.00   -nan(ind)  -nan(ind)  -nan(ind)  -nan(ind)  -nan(ind)  -nan(ind)  -nan(ind)  -nan(ind)  -nan(ind)
  SEW-1472                1.00   -nan(ind)  -nan(ind)  -nan(ind)  -nan(ind)  -nan(ind)  -nan(ind)  -nan(ind)  -nan(ind)  -nan(ind)
  SEW-1743                1.00   -nan(ind)  -nan(ind)  -nan(ind)  -nan(ind)  -nan(ind)  -nan(ind)  -nan(ind)  -nan(ind)  -nan(ind)
  SEW-1745                1.00   -nan(ind)  -nan(ind)  -nan(ind)  -nan(ind)  -nan(ind)  -nan(ind)  -nan(ind)  -nan(ind)  -nan(ind)
  SEW-1746                1.00   -nan(ind)  -nan(ind)  -nan(ind)  -nan(ind)  -nan(ind)  -nan(ind)  -nan(ind)  -nan(ind)  -nan(ind)
  SEW-1747                1.00   -nan(ind)  -nan(ind)  -nan(ind)  -nan(ind)  -nan(ind)  -nan(ind)  -nan(ind)  -nan(ind)  -nan(ind)
  SEW-1748                1.00   -nan(ind)  -nan(ind)  -nan(ind)  -nan(ind)  -nan(ind)  -nan(ind)  -nan(ind)  -nan(ind)  -nan(ind)
  SEW-1749                1.00   -nan(ind)  -nan(ind)  -nan(ind)  -nan(ind)  -nan(ind)  -nan(ind)  -nan(ind)  -nan(ind)  -nan(ind)
  SEW-1750                1.00   -nan(ind)  -nan(ind)  -nan(ind)  -nan(ind)  -nan(ind)  -nan(ind)  -nan(ind)  -nan(ind)  -nan(ind)
  SEW-1751                1.00   -nan(ind)  -nan(ind)  -nan(ind)  -nan(ind)  -nan(ind)  -nan(ind)  -nan(ind)  -nan(ind)  -nan(ind)
  SEW-1752                1.00   -nan(ind)  -nan(ind)  -nan(ind)  -nan(ind)  -nan(ind)  -nan(ind)  -nan(ind)  -nan(ind)  -nan(ind)
  SEW-1753                1.00   -nan(ind)  -nan(ind)  -nan(ind)  -nan(ind)  -nan(ind)  -nan(ind)  -nan(ind)  -nan(ind)  -nan(ind)
  SEW-1754                1.00   -nan(ind)  -nan(ind)  -nan(ind)  -nan(ind)  -nan(ind)  -nan(ind)  -nan(ind)  -nan(ind)  -nan(ind)
  SEW-1755                1.00   -nan(ind)  -nan(ind)  -nan(ind)  -nan(ind)  -nan(ind)  -nan(ind)  -nan(ind)  -nan(ind)  -nan(ind)
  SEW-1756                1.00   -nan(ind)  -nan(ind)  -nan(ind)  -nan(ind)  -nan(ind)  -nan(ind)  -nan(ind)  -nan(ind)  -nan(ind)
  SEW-1757                1.00   -nan(ind)  -nan(ind)  -nan(ind)  -nan(ind)  -nan(ind)  -nan(ind)  -nan(ind)  -nan(ind)  -nan(ind)
  SEW-1761                1.00   -nan(ind)  -nan(ind)  -nan(ind)  -nan(ind)  -nan(ind)  -nan(ind)  -nan(ind)  -nan(ind)  -nan(ind)
  SEW-1762                1.00   -nan(ind)  -nan(ind)  -nan(ind)  -nan(ind)  -nan(ind)  -nan(ind)  -nan(ind)  -nan(ind)  -nan(ind)
  SEW-1763                1.00   -nan(ind)  -nan(ind)  -nan(ind)  -nan(ind)  -nan(ind)  -nan(ind)  -nan(ind)  -nan(ind)  -nan(ind)
  SEW-1764                1.00   -nan(ind)  -nan(ind)  -nan(ind)  -nan(ind)  -nan(ind)  -nan(ind)  -nan(ind)  -nan(ind)  -nan(ind)
  SEW-1765                1.00   -nan(ind)  -nan(ind)  -nan(ind)  -nan(ind)  -nan(ind)  -nan(ind)  -nan(ind)  -nan(ind)  -nan(ind)
  SEW-1766                1.00   -nan(ind)  -nan(ind)  -nan(ind)  -nan(ind)  -nan(ind)  -nan(ind)  -nan(ind)  -nan(ind)  -nan(ind)
  SEW-1811                1.00   -nan(ind)  -nan(ind)  -nan(ind)  -nan(ind)  -nan(ind)  -nan(ind)  -nan(ind)  -nan(ind)  -nan(ind)
  SEW-1812                1.00   -nan(ind)  -nan(ind)  -nan(ind)  -nan(ind)  -nan(ind)  -nan(ind)  -nan(ind)  -nan(ind)  -nan(ind)
  SEW-1812B               1.00   -nan(ind)  -nan(ind)  -nan(ind)  -nan(ind)  -nan(ind)  -nan(ind)  -nan(ind)  -nan(ind)  -nan(ind)
  SEW-1813                1.00   -nan(ind)  -nan(ind)  -nan(ind)  -nan(ind)  -nan(ind)  -nan(ind)  -nan(ind)  -nan(ind)  -nan(ind)
  SEW-1814                1.00   -nan(ind)  -nan(ind)  -nan(ind)  -nan(ind)  -nan(ind)  -nan(ind)  -nan(ind)  -nan(ind)  -nan(ind)
  SEW-1815                1.00   -nan(ind)  -nan(ind)  -nan(ind)  -nan(ind)  -nan(ind)  -nan(ind)  -nan(ind)  -nan(ind)  -nan(ind)
  SEW-1816                1.00   -nan(ind)  -nan(ind)  -nan(ind)  -nan(ind)  -nan(ind)  -nan(ind)  -nan(ind)  -nan(ind)  -nan(ind)
  SEW-1817                1.00   -nan(ind)  -nan(ind)  -nan(ind)  -nan(ind)  -nan(ind)  -nan(ind)  -nan(ind)  -nan(ind)  -nan(ind)
  SEW-1818                1.00   -nan(ind)  -nan(ind)  -nan(ind)  -nan(ind)  -nan(ind)  -nan(ind)  -nan(ind)  -nan(ind)  -nan(ind)
  SEW-1819                1.00   -nan(ind)  -nan(ind)  -nan(ind)  -nan(ind)  -nan(ind)  -nan(ind)  -nan(ind)  -nan(ind)  -nan(ind)
  
  
  *************************
  Conduit Surcharge Summary
  *************************
  
  No conduits were surcharged.
  
  
  ***************
  Pumping Summary
  ***************
  
  ---------------------------------------------------------------------------------------------------------
                                                  Min       Avg       Max     Total     Power    % Time Off
                        Percent   Number of      Flow      Flow      Flow    Volume     Usage    Pump Curve
  Pump                 Utilized   Start-Ups       LPS       LPS       LPS  10^6 ltr     Kw-hr    Low   High
  ---------------------------------------------------------------------------------------------------------
  115AVEPS1            -nan(ind)           0      0.00      0.00      0.00     0.000      0.00    0.0    0.0
  115AVEPS2            -nan(ind)           0      0.00      0.00      0.00     0.000      0.00    0.0    0.0
  115AVEPS3            -nan(ind)           0      0.00      0.00      0.00     0.000      0.00    0.0    0.0
  115AVEPS_F           -nan(ind)           0      0.00      0.00      0.00     0.000      0.00    0.0    0.0
  AIRPORTPS1           -nan(ind)           0      0.00      0.00      0.00     0.000      0.00    0.0    0.0
  AIRPORTPS2           -nan(ind)           0      0.00      0.00      0.00     0.000      0.00    0.0    0.0
  AIRPORTPS_F          -nan(ind)           0      0.00      0.00      0.00     0.000      0.00    0.0    0.0
  BCHYDROPS            -nan(ind)           0      0.00      0.00      0.00     0.000      0.00    0.0    0.0
  CHILTONPS1           -nan(ind)           0      0.00      0.00      0.00     0.000      0.00    0.0    0.0
  CHILTONPS2           -nan(ind)           0      0.00      0.00      0.00     0.000      0.00    0.0    0.0
  CHILTONPS_F          -nan(ind)           0      0.00      0.00      0.00     0.000      0.00    0.0    0.0
  HARTPS1              -nan(ind)           0      0.00      0.00      0.00     0.000      0.00    0.0    0.0
  HARTPS2              -nan(ind)           0      0.00      0.00      0.00     0.000      0.00    0.0    0.0
  HARTPS_F             -nan(ind)           0      0.00      0.00      0.00     0.000      0.00    0.0    0.0
  HERITAGEPS           -nan(ind)           0      0.00      0.00      0.00     0.000      0.00    0.0    0.0
  

  Analysis begun on:  Sat Nov 30 08:10:35 2019
  Analysis ended on:  Sat Nov 30 08:10:35 2019
  Total elapsed time: < 1 sec