
  EPA STORM WATER MANAGEMENT MODEL - VERSION 5.1 (Build 5.1.013)
  --------------------------------------------------------------

  WARNING 01: wet weather time step reduced to recording interval for Rain Gage RAINGAGE-1
  WARNING 04: minimum elevation drop used for Conduit CDT-427
  WARNING 04: minimum elevation drop used for Conduit CDT-477
  WARNING 04: minimum elevation drop used for Conduit CDT-533
  WARNING 04: minimum elevation drop used for Conduit CDT-57
  WARNING 04: minimum elevation drop used for Conduit CDT-59
  WARNING 04: minimum elevation drop used for Conduit CDT-61
  WARNING 04: minimum elevation drop used for Conduit CDT-63
  WARNING 04: minimum elevation drop used for Conduit CDT-65
  WARNING 04: minimum elevation drop used for Conduit CDT-67
  WARNING 04: minimum elevation drop used for Conduit CDT-71
  WARNING 04: minimum elevation drop used for Conduit CDT-73
  WARNING 04: minimum elevation drop used for Conduit CDT-75
  WARNING 04: minimum elevation drop used for Conduit CDT-77
  WARNING 04: minimum elevation drop used for Conduit CDT-79
  WARNING 04: minimum elevation drop used for Conduit CDT-81
  WARNING 04: minimum elevation drop used for Conduit L10-3A
  WARNING 04: minimum elevation drop used for Conduit OVERLAND_23
  WARNING 02: maximum depth increased for Node 11_1
  WARNING 02: maximum depth increased for Node 1_0C
  WARNING 02: maximum depth increased for Node 1_22B
  WARNING 02: maximum depth increased for Node 1_23
  WARNING 02: maximum depth increased for Node 1_29
  WARNING 02: maximum depth increased for Node JCT-1784
  WARNING 02: maximum depth increased for Node JCT-2054
  WARNING 02: maximum depth increased for Node JCT-2056
  WARNING 02: maximum depth increased for Node JCT-2066
  WARNING 02: maximum depth increased for Node JCT-2068
  WARNING 02: maximum depth increased for Node L11_11
  WARNING 02: maximum depth increased for Node L11_6
  WARNING 02: maximum depth increased for Node L12_20A
  WARNING 02: maximum depth increased for Node L12_20C
  WARNING 02: maximum depth increased for Node L12_20D
  WARNING 02: maximum depth increased for Node L12_20E
  WARNING 02: maximum depth increased for Node L1_12
  WARNING 02: maximum depth increased for Node L1_15
  WARNING 02: maximum depth increased for Node L1_15B
  WARNING 02: maximum depth increased for Node L22_6
  WARNING 02: maximum depth increased for Node L3_3A
  
  *********************************************************
  NOTE: The summary statistics displayed in this report are
  based on results found at every computational time step,  
  not just on results from each reporting time step.
  *********************************************************
  
  ****************
  Analysis Options
  ****************
  Flow Units ............... GPM
  Process Models:
    Rainfall/Runoff ........ YES
    RDII ................... NO
    Snowmelt ............... NO
    Groundwater ............ NO
    Flow Routing ........... YES
    Ponding Allowed ........ YES
    Water Quality .......... NO
  Infiltration Method ...... CURVE_NUMBER
  Flow Routing Method ...... DYNWAVE
  Surcharge Method ......... EXTRAN
  Starting Date ............ 04/30/2015 20:00:00
  Ending Date .............. 05/02/2015 00:00:00
  Antecedent Dry Days ...... 5.0
  Report Time Step ......... 00:01:00
  Wet Time Step ............ 00:01:00
  Dry Time Step ............ 00:02:00
  Routing Time Step ........ 30.00 sec
  Variable Time Step ....... YES
  Maximum Trials ........... 6
  Number of Threads ........ 1
  Head Tolerance ........... 0.000100 ft
  
  
  **************************        Volume         Depth
  Runoff Quantity Continuity     acre-feet        inches
  **************************     ---------       -------
  Total Precipitation ......       187.432         0.890
  Evaporation Loss .........         0.000         0.000
  Infiltration Loss ........       120.474         0.572
  Surface Runoff ...........        56.898         0.270
  Final Storage ............        10.191         0.048
  Continuity Error (%) .....        -0.071
  
  
  **************************        Volume        Volume
  Flow Routing Continuity        acre-feet      10^6 gal
  **************************     ---------     ---------
  Dry Weather Inflow .......         0.000         0.000
  Wet Weather Inflow .......        56.807        18.511
  Groundwater Inflow .......         0.000         0.000
  RDII Inflow ..............         0.000         0.000
  External Inflow ..........       222.175        72.399
  External Outflow .........       239.641        78.091
  Flooding Loss ............        25.736         8.387
  Evaporation Loss .........         0.000         0.000
  Exfiltration Loss ........         0.000         0.000
  Initial Stored Volume ....         0.002         0.001
  Final Stored Volume ......        10.951         3.569
  Continuity Error (%) .....         0.952
  
  
  *************************
  Highest Continuity Errors
  *************************
  Node 12_2 (8.08%)
  Node 1_31A (6.79%)
  Node 10_1 (2.98%)
  Node 2_2 (2.12%)
  Node L13_1 (2.01%)
  
  
  ***************************
  Time-Step Critical Elements
  ***************************
  Link CDT-423 (38.45%)
  Link L1-11D (14.72%)
  Link 2000_W_CROSSING (9.24%)
  Link CDT-401 (6.45%)
  Link L12-20 (5.55%)
  
  
  ********************************
  Highest Flow Instability Indexes
  ********************************
  Link L1-17A (23)
  Link 2000_W_CROSSING (21)
  Link L12-22 (21)
  Link L1-17 (18)
  Link CDT-343 (18)
  
  
  *************************
  Routing Time Step Summary
  *************************
  Minimum Time Step           :     0.40 sec
  Average Time Step           :     7.08 sec
  Maximum Time Step           :    30.00 sec
  Percent in Steady State     :     0.00
  Average Iterations per Step :     5.26
  Percent Not Converging      :    58.27
  
  
  ***************************
  Subcatchment Runoff Summary
  ***************************
  
  ------------------------------------------------------------------------------------------------------------------------------
                            Total      Total      Total      Total     Imperv       Perv      Total       Total     Peak  Runoff
                           Precip      Runon       Evap      Infil     Runoff     Runoff     Runoff      Runoff   Runoff   Coeff
  Subcatchment                 in         in         in         in         in         in         in    10^6 gal      GPM
  ------------------------------------------------------------------------------------------------------------------------------
  P_SUB-10_0A                0.89       0.00       0.00       0.81       0.00       0.03       0.03        0.01   375.49   0.034
  P_SUB-10_0X                0.89       0.00       0.00       0.81       0.00       0.04       0.04        0.01   171.47   0.040
  P_SUB-10_0Y                0.89       0.00       0.00       0.81       0.00       0.03       0.03        0.01   271.94   0.037
  P_SUB-10_1A                0.89       0.00       0.00       0.81       0.00       0.03       0.03        0.01   219.86   0.038
  P_SUB-10_3                 0.89       0.00       0.00       0.80       0.00       0.04       0.04        0.00    13.56   0.048
  P_SUB-11_0X                0.89       0.00       0.00       0.80       0.00       0.04       0.04        0.00    11.06   0.049
  P_SUB-11_0Y                0.89       0.00       0.00       0.81       0.00       0.04       0.04        0.00   132.38   0.042
  P_SUB-11_1                 0.89       0.00       0.00       0.76       0.00       0.09       0.09        0.00     0.12   0.103
  P_SUB-11_2                 0.89       0.00       0.00       0.80       0.00       0.04       0.04        0.00     8.59   0.049
  P_SUB-12_0                 0.89       0.00       0.00       0.76       0.00       0.09       0.09        0.00     0.12   0.103
  P_SUB-12_1                 0.89       0.00       0.00       0.76       0.00       0.09       0.09        0.00     0.12   0.103
  P_SUB-12_2                 0.89       0.00       0.00       0.80       0.00       0.04       0.04        0.00    70.29   0.045
  P_SUB-12_3                 0.89       0.00       0.00       0.81       0.00       0.04       0.04        0.00   111.50   0.043
  P_SUB-12_4                 0.89       0.00       0.00       0.80       0.00       0.04       0.04        0.00     6.10   0.049
  P_SUB-13_0                 0.89       0.00       0.00       0.81       0.00       0.04       0.04        0.00   110.53   0.043
  P_SUB-15_0X                0.89       0.00       0.00       0.81       0.00       0.03       0.03        0.01   250.90   0.038
  P_SUB-15_0Y                0.89       0.00       0.00       0.81       0.00       0.03       0.03        0.01   383.80   0.034
  P_SUB-15_1                 0.89       0.00       0.00       0.81       0.00       0.03       0.03        0.01   318.02   0.036
  P_SUB-15_2                 0.89       0.00       0.00       0.80       0.00       0.04       0.04        0.00     7.12   0.049
  P_SUB-16_0                 0.89       0.00       0.00       0.82       0.00       0.02       0.02        0.02   706.99   0.025
  P_SUB-17_0                 0.89       0.00       0.00       0.80       0.00       0.04       0.04        0.00   105.87   0.047
  P_SUB-1_0BX                0.89       0.00       0.00       0.82       0.00       0.03       0.03        0.01   487.79   0.031
  P_SUB-1_0BY                0.89       0.00       0.00       0.82       0.00       0.02       0.02        0.02   741.74   0.024
  P_SUB-1_0X                 0.89       0.00       0.00       0.82       0.00       0.03       0.03        0.01   479.49   0.031
  P_SUB-1_0Y                 0.89       0.00       0.00       0.82       0.00       0.02       0.02        0.02   667.46   0.026
  P_SUB-1_0Z                 0.89       0.00       0.00       0.81       0.00       0.04       0.04        0.00   102.75   0.043
  P_SUB-1_10                 0.89       0.00       0.00       0.82       0.00       0.03       0.03        0.01   440.76   0.032
  P_SUB-1_12                 0.89       0.00       0.00       0.82       0.00       0.02       0.02        0.02   646.82   0.027
  P_SUB-1_14A                0.89       0.00       0.00       0.82       0.00       0.02       0.02        0.02   728.66   0.024
  P_SUB-1_15X                0.89       0.00       0.00       0.81       0.00       0.03       0.03        0.01   260.48   0.037
  P_SUB-1_15Y                0.89       0.00       0.00       0.81       0.00       0.04       0.04        0.01   185.44   0.040
  P_SUB-1_16                 0.89       0.00       0.00       0.80       0.00       0.04       0.04        0.00    35.05   0.047
  P_SUB-1_17                 0.89       0.00       0.00       0.81       0.00       0.04       0.04        0.00   154.10   0.041
  P_SUB-1_20                 0.89       0.00       0.00       0.80       0.00       0.04       0.04        0.00    26.69   0.047
  P_SUB-1_20B                0.89       0.00       0.00       0.81       0.00       0.03       0.03        0.01   233.11   0.038
  P_SUB-1_21                 0.89       0.00       0.00       0.82       0.00       0.03       0.03        0.01   452.54   0.032
  P_SUB-1_22A                0.89       0.00       0.00       0.81       0.00       0.03       0.03        0.01   323.27   0.035
  P_SUB-1_23                 0.89       0.00       0.00       0.81       0.00       0.04       0.04        0.00   120.86   0.043
  P_SUB-1_24                 0.89       0.00       0.00       0.81       0.00       0.04       0.04        0.00    91.58   0.044
  P_SUB-1_25X                0.89       0.00       0.00       0.81       0.00       0.04       0.04        0.01   192.62   0.039
  P_SUB-1_25Y                0.89       0.00       0.00       0.81       0.00       0.04       0.04        0.00   154.21   0.041
  P_SUB-1_26                 0.89       0.00       0.00       0.80       0.00       0.04       0.04        0.00    88.11   0.048
  P_SUB-1_28                 0.89       0.00       0.00       0.81       0.00       0.03       0.03        0.01   397.49   0.033
  P_SUB-1_29                 0.89       0.00       0.00       0.81       0.00       0.04       0.04        0.00   102.10   0.043
  P_SUB-1_31                 0.89       0.00       0.00       0.80       0.00       0.04       0.04        0.00    92.61   0.048
  P_SUB-1_4X                 0.89       0.00       0.00       0.81       0.00       0.04       0.04        0.00   143.77   0.041
  P_SUB-1_4Y                 0.89       0.00       0.00       0.82       0.00       0.03       0.03        0.01   455.87   0.032
  P_SUB-1_5                  0.89       0.00       0.00       0.82       0.00       0.02       0.02        0.02   601.62   0.028
  P_SUB-1_6                  0.89       0.00       0.00       0.81       0.00       0.04       0.04        0.01   192.24   0.039
  P_SUB-1_7                  0.89       0.00       0.00       0.81       0.00       0.03       0.03        0.01   364.22   0.034
  P_SUB-1_8                  0.89       0.00       0.00       0.82       0.00       0.03       0.03        0.01   442.20   0.032
  P_SUB-1_9                  0.89       0.00       0.00       0.82       0.00       0.02       0.02        0.02   596.87   0.028
  P_SUB-200S_0               0.89       0.00       0.00       0.82       0.00       0.02       0.02        0.02   677.50   0.026
  P_SUB-200S_1               0.89       0.00       0.00       0.82       0.00       0.02       0.02        0.02   937.05   0.020
  P_SUB-200S_10              0.89       0.00       0.00       0.81       0.00       0.04       0.04        0.00    99.72   0.044
  P_SUB-200S_11P             0.89       0.00       0.00       0.80       0.00       0.04       0.04        0.00    45.18   0.046
  P_SUB-200S_2               0.89       0.00       0.00       0.82       0.00       0.02       0.02        0.02   654.42   0.026
  P_SUB-200S_3               0.89       0.00       0.00       0.82       0.00       0.03       0.03        0.01   407.73   0.033
  P_SUB-200S_4               0.89       0.00       0.00       0.81       0.00       0.04       0.04        0.01   161.02   0.041
  P_SUB-200S_5               0.89       0.00       0.00       0.80       0.00       0.04       0.04        0.00    19.84   0.048
  P_SUB-200S_6               0.89       0.00       0.00       0.76       0.00       0.09       0.09        0.00     0.12   0.103
  P_SUB-200S_7               0.89       0.00       0.00       0.76       0.00       0.09       0.09        0.00     0.12   0.103
  P_SUB-200S_8               0.89       0.00       0.00       0.80       0.00       0.05       0.05        0.00     0.51   0.053
  P_SUB-200S_9               0.89       0.00       0.00       0.80       0.00       0.04       0.04        0.00    28.34   0.047
  P_SUB-28_01                0.89       0.00       0.00       0.81       0.00       0.04       0.04        0.00   106.73   0.043
  P_SUB-28_02                0.89       0.00       0.00       0.80       0.00       0.04       0.04        0.00    36.26   0.047
  P_SUB-28_03                0.89       0.00       0.00       0.79       0.00       0.06       0.06        0.00     8.96   0.066
  P_SUB-28_2                 0.89       0.00       0.00       0.71       0.00       0.14       0.14        0.00    47.94   0.153
  P_SUB-28_3                 0.89       0.00       0.00       0.75       0.00       0.09       0.09        0.00   104.44   0.105
  P_SUB-28_4X                0.89       0.00       0.00       0.73       0.00       0.12       0.12        0.00    19.73   0.130
  P_SUB-28_4Y                0.89       0.00       0.00       0.71       0.00       0.14       0.14        0.00     1.08   0.158
  P_SUB-28_5X                0.89       0.00       0.00       0.71       0.00       0.13       0.13        0.01   391.62   0.146
  P_SUB-28_5Y                0.89       0.00       0.00       0.73       0.00       0.12       0.12        0.03   881.59   0.129
  P_SUB-2_0                  0.89       0.00       0.00       0.81       0.00       0.04       0.04        0.01   179.88   0.040
  P_SUB-2_1                  0.89       0.00       0.00       0.81       0.00       0.03       0.03        0.01   252.01   0.037
  P_SUB-2_1A                 0.89       0.00       0.00       0.82       0.00       0.03       0.03        0.02   555.10   0.029
  P_SUB-2_3X                 0.89       0.00       0.00       0.82       0.00       0.02       0.02        0.02   709.48   0.025
  P_SUB-2_3Y                 0.89       0.00       0.00       0.82       0.00       0.03       0.03        0.01   488.44   0.031
  P_SUB-2_4                  0.89       0.00       0.00       0.81       0.00       0.04       0.04        0.01   179.51   0.040
  P_SUB-2_5                  0.89       0.00       0.00       0.82       0.00       0.02       0.02        0.02   738.85   0.024
  P_SUB-3_0                  0.89       0.00       0.00       0.81       0.00       0.04       0.04        0.01   167.79   0.040
  P_SUB-3_1                  0.89       0.00       0.00       0.81       0.00       0.04       0.04        0.00   146.16   0.041
  P_SUB-4_0                  0.89       0.00       0.00       0.82       0.00       0.03       0.03        0.01   443.94   0.032
  P_SUB-4_1                  0.89       0.00       0.00       0.81       0.00       0.03       0.03        0.01   242.95   0.038
  P_SUB-4_2                  0.89       0.00       0.00       0.81       0.00       0.03       0.03        0.01   223.76   0.038
  P_SUB-4_3                  0.89       0.00       0.00       0.81       0.00       0.03       0.03        0.01   302.77   0.036
  P_SUB-4_5                  0.89       0.00       0.00       0.82       0.00       0.03       0.03        0.02   544.84   0.029
  P_SUB-5_0                  0.89       0.00       0.00       0.82       0.00       0.02       0.02        0.02   946.15   0.020
  P_SUB-5_2                  0.89       0.00       0.00       0.81       0.00       0.04       0.04        0.01   172.14   0.040
  P_SUB-6_0                  0.89       0.00       0.00       0.81       0.00       0.03       0.03        0.01   207.10   0.039
  P_SUB-6_2                  0.89       0.00       0.00       0.82       0.00       0.03       0.03        0.02   578.09   0.028
  P_SUB-6_2B                 0.89       0.00       0.00       0.82       0.00       0.03       0.03        0.01   484.31   0.031
  P_SUB-7_0                  0.89       0.00       0.00       0.81       0.00       0.03       0.03        0.01   399.82   0.033
  P_SUB-7_1                  0.89       0.00       0.00       0.82       0.00       0.03       0.03        0.01   427.71   0.032
  P_SUB-8_0                  0.89       0.00       0.00       0.82       0.00       0.02       0.02        0.02   603.11   0.028
  P_SUB-8_1                  0.89       0.00       0.00       0.81       0.00       0.04       0.04        0.00   127.13   0.042
  P_SUB-8_4C                 0.89       0.00       0.00       0.82       0.00       0.03       0.03        0.01   452.53   0.032
  P_SUB-8_5                  0.89       0.00       0.00       0.80       0.00       0.04       0.04        0.00    14.79   0.048
  P_SUB-8_7                  0.89       0.00       0.00       0.81       0.00       0.04       0.04        0.00   115.66   0.043
  P_SUB-9_3                  0.89       0.00       0.00       0.81       0.00       0.03       0.03        0.01   253.68   0.037
  P_SUB-9_6                  0.89       0.00       0.00       0.81       0.00       0.03       0.03        0.01   304.39   0.036
  P_SUB-L10_0                0.89       0.00       0.00       0.82       0.00       0.02       0.02        0.02   673.60   0.026
  P_SUB-L10_0B               0.89       0.00       0.00       0.81       0.00       0.04       0.04        0.00   154.20   0.041
  P_SUB-L10_1                0.89       0.00       0.00       0.81       0.00       0.04       0.04        0.00   151.35   0.041
  P_SUB-L10_1A               0.89       0.00       0.00       0.82       0.00       0.03       0.03        0.01   490.69   0.031
  P_SUB-L10_2                0.89       0.00       0.00       0.81       0.00       0.04       0.04        0.00   119.95   0.043
  P_SUB-L10_2A               0.89       0.00       0.00       0.81       0.00       0.03       0.03        0.01   234.22   0.038
  P_SUB-L10_2B               0.89       0.00       0.00       0.81       0.00       0.04       0.04        0.00   105.11   0.043
  P_SUB-L10_2C               0.89       0.00       0.00       0.81       0.00       0.03       0.03        0.01   290.75   0.036
  P_SUB-L10_2D               0.89       0.00       0.00       0.81       0.00       0.03       0.03        0.01   335.67   0.035
  P_SUB-L10_3                0.89       0.00       0.00       0.81       0.00       0.04       0.04        0.00   125.92   0.042
  P_SUB-L10_3A               0.89       0.00       0.00       0.81       0.00       0.04       0.04        0.01   190.54   0.039
  P_SUB-L10_5                0.89       0.00       0.00       0.81       0.00       0.04       0.04        0.00   154.80   0.041
  P_SUB-L11_11               0.89       0.00       0.00       0.71       0.00       0.13       0.13        0.00     0.65   0.148
  P_SUB-L11_12               0.89       0.00       0.00       0.71       0.00       0.14       0.14        0.00    76.48   0.152
  P_SUB-L11_13               0.89       0.00       0.00       0.71       0.00       0.14       0.14        0.00    22.96   0.154
  P_SUB-L11_14               0.89       0.00       0.00       0.71       0.00       0.13       0.13        0.00   144.49   0.151
  P_SUB-L11_3                0.89       0.00       0.00       0.80       0.00       0.04       0.04        0.00     0.69   0.050
  P_SUB-L11_9                0.89       0.00       0.00       0.71       0.00       0.14       0.14        0.00     5.28   0.155
  P_SUB-L12_15               0.89       0.00       0.00       0.71       0.00       0.13       0.13        0.00   124.40   0.151
  P_SUB-L12_17               0.89       0.00       0.00       0.71       0.00       0.13       0.13        0.01   277.48   0.148
  P_SUB-L12_20               0.89       0.00       0.00       0.71       0.00       0.13       0.13        0.01   400.47   0.146
  P_SUB-L12_20C              0.89       0.00       0.00       0.71       0.00       0.13       0.13        0.01   475.13   0.144
  P_SUB-L12_21               0.89       0.00       0.00       0.72       0.00       0.12       0.12        0.05  1423.77   0.132
  P_SUB-L12_6                0.89       0.00       0.00       0.71       0.00       0.14       0.14        0.00    35.03   0.154
  P_SUB-L13_0                0.89       0.00       0.00       0.71       0.00       0.13       0.13        0.00   166.24   0.150
  P_SUB-L13_1                0.89       0.00       0.00       0.71       0.00       0.13       0.13        0.01   361.17   0.146
  P_SUB-L14_0                0.89       0.00       0.00       0.80       0.00       0.04       0.04        0.00    30.06   0.047
  P_SUB-L14_1                0.89       0.00       0.00       0.76       0.00       0.08       0.08        0.00    24.17   0.090
  P_SUB-L14_2                0.89       0.00       0.00       0.71       0.00       0.14       0.14        0.00    60.61   0.153
  P_SUB-L15_3                0.89       0.00       0.00       0.80       0.00       0.04       0.04        0.00     5.11   0.049
  P_SUB-L15_4                0.89       0.00       0.00       0.80       0.00       0.04       0.04        0.00     5.52   0.049
  P_SUB-L15_5                0.89       0.00       0.00       0.80       0.00       0.04       0.04        0.00     2.12   0.050
  P_SUB-L16_1                0.89       0.00       0.00       0.80       0.00       0.04       0.04        0.00    67.51   0.045
  P_SUB-L17_0                0.89       0.00       0.00       0.81       0.00       0.04       0.04        0.01   189.71   0.039
  P_SUB-L18_0                0.89       0.00       0.00       0.82       0.00       0.03       0.03        0.01   427.78   0.032
  P_SUB-L19_0                0.89       0.00       0.00       0.80       0.00       0.04       0.04        0.00     1.94   0.050
  P_SUB-L19_1                0.89       0.00       0.00       0.80       0.00       0.04       0.04        0.00    62.83   0.045
  P_SUB-L1_0                 0.89       0.00       0.00       0.81       0.00       0.03       0.03        0.01   372.18   0.034
  P_SUB-L1_1                 0.89       0.00       0.00       0.81       0.00       0.04       0.04        0.00   104.52   0.043
  P_SUB-L1_11                0.89       0.00       0.00       0.80       0.00       0.04       0.04        0.00     5.21   0.049
  P_SUB-L1_11A               0.89       0.00       0.00       0.81       0.00       0.04       0.04        0.00   148.24   0.041
  P_SUB-L1_11B               0.89       0.00       0.00       0.80       0.00       0.04       0.04        0.00     3.53   0.049
  P_SUB-L1_13                0.89       0.00       0.00       0.81       0.00       0.04       0.04        0.00   109.01   0.043
  P_SUB-L1_14AX              0.89       0.00       0.00       0.71       0.00       0.14       0.14        0.00    34.61   0.154
  P_SUB-L1_14AY              0.89       0.00       0.00       0.74       0.00       0.11       0.11        0.01   365.75   0.121
  P_SUB-L1_15                0.89       0.00       0.00       0.71       0.00       0.14       0.14        0.00    11.84   0.154
  P_SUB-L1_15A               0.89       0.00       0.00       0.71       0.00       0.14       0.14        0.00     1.30   0.157
  P_SUB-L1_15B               0.89       0.00       0.00       0.71       0.00       0.13       0.13        0.00   177.17   0.150
  P_SUB-L1_18A               0.89       0.00       0.00       0.71       0.00       0.13       0.13        0.01   405.71   0.146
  P_SUB-L1_2                 0.89       0.00       0.00       0.80       0.00       0.04       0.04        0.00    46.17   0.046
  P_SUB-L1_4                 0.89       0.00       0.00       0.80       0.00       0.04       0.04        0.00    18.25   0.048
  P_SUB-L1_5                 0.89       0.00       0.00       0.80       0.00       0.04       0.04        0.00    17.46   0.048
  P_SUB-L1_6                 0.89       0.00       0.00       0.80       0.00       0.04       0.04        0.00     8.55   0.049
  P_SUB-L1_7                 0.89       0.00       0.00       0.80       0.00       0.04       0.04        0.00    34.48   0.047
  P_SUB-L1_8                 0.89       0.00       0.00       0.80       0.00       0.04       0.04        0.00    85.29   0.044
  P_SUB-L1_9                 0.89       0.00       0.00       0.81       0.00       0.04       0.04        0.00   143.37   0.041
  P_SUB-L1_9BV               0.89       0.00       0.00       0.80       0.00       0.04       0.04        0.00    83.19   0.044
  P_SUB-L1_9BX               0.89       0.00       0.00       0.80       0.00       0.04       0.04        0.00    20.21   0.048
  P_SUB-L1_9BY               0.89       0.00       0.00       0.80       0.00       0.04       0.04        0.00    31.13   0.047
  P_SUB-L1_9BZ               0.89       0.00       0.00       0.81       0.00       0.04       0.04        0.00   139.61   0.042
  P_SUB-L20_0                0.89       0.00       0.00       0.81       0.00       0.04       0.04        0.01   188.26   0.040
  P_SUB-L21_0                0.89       0.00       0.00       0.81       0.00       0.04       0.04        0.01   307.50   0.040
  P_SUB-L22_0                0.89       0.00       0.00       0.81       0.00       0.03       0.03        0.01   295.38   0.036
  P_SUB-L22_1                0.89       0.00       0.00       0.81       0.00       0.03       0.03        0.01   308.80   0.036
  P_SUB-L22_5                0.89       0.00       0.00       0.76       0.00       0.08       0.08        0.00    24.24   0.090
  P_SUB-L22_6                0.89       0.00       0.00       0.80       0.00       0.05       0.05        0.00    12.46   0.052
  P_SUB-L23_1                0.89       0.00       0.00       0.72       0.00       0.13       0.13        0.00     0.66   0.142
  P_SUB-L24_0                0.89       0.00       0.00       0.80       0.00       0.04       0.04        0.00    44.80   0.046
  P_SUB-L24_1                0.89       0.00       0.00       0.81       0.00       0.04       0.04        0.00    87.50   0.044
  P_SUB-L24_2                0.89       0.00       0.00       0.81       0.00       0.04       0.04        0.00   101.19   0.043
  P_SUB-L24_3                0.89       0.00       0.00       0.80       0.00       0.04       0.04        0.00    11.15   0.049
  P_SUB-L24_4                0.89       0.00       0.00       0.81       0.00       0.04       0.04        0.00   144.25   0.041
  P_SUB-L24_5                0.89       0.00       0.00       0.80       0.00       0.04       0.04        0.00    82.73   0.044
  P_SUB-L25_0                0.89       0.00       0.00       0.80       0.00       0.04       0.04        0.00    36.37   0.047
  P_SUB-L25_2                0.89       0.00       0.00       0.80       0.00       0.04       0.04        0.00    49.85   0.050
  P_SUB-L25_3                0.89       0.00       0.00       0.71       0.00       0.13       0.13        0.00    18.79   0.147
  P_SUB-L25_4                0.89       0.00       0.00       0.73       0.00       0.12       0.12        0.00   184.50   0.132
  P_SUB-L25_5                0.89       0.00       0.00       0.71       0.00       0.13       0.13        0.02   586.36   0.143
  P_SUB-L2_0                 0.89       0.00       0.00       0.81       0.00       0.04       0.04        0.00   122.29   0.043
  P_SUB-L2_0A                0.89       0.00       0.00       0.80       0.00       0.04       0.04        0.00     5.06   0.049
  P_SUB-L2_0B                0.89       0.00       0.00       0.80       0.00       0.04       0.04        0.00     6.18   0.049
  P_SUB-L2_0D                0.89       0.00       0.00       0.80       0.00       0.04       0.04        0.00     4.86   0.049
  P_SUB-L2_0H                0.89       0.00       0.00       0.80       0.00       0.04       0.04        0.00    21.53   0.048
  P_SUB-L2_0I                0.89       0.00       0.00       0.80       0.00       0.04       0.04        0.00     3.21   0.049
  P_SUB-L2_0J                0.89       0.00       0.00       0.80       0.00       0.04       0.04        0.00    19.29   0.048
  P_SUB-L2_0L                0.89       0.00       0.00       0.80       0.00       0.05       0.05        0.00     0.45   0.051
  P_SUB-L2_0M                0.89       0.00       0.00       0.80       0.00       0.04       0.04        0.00     4.13   0.049
  P_SUB-L2_0N                0.89       0.00       0.00       0.80       0.00       0.04       0.04        0.00    32.41   0.047
  P_SUB-L3_1                 0.89       0.00       0.00       0.81       0.00       0.03       0.03        0.01   327.81   0.035
  P_SUB-L3_2                 0.89       0.00       0.00       0.81       0.00       0.03       0.03        0.01   219.98   0.038
  P_SUB-L3_3                 0.89       0.00       0.00       0.81       0.00       0.03       0.03        0.01   389.19   0.034
  P_SUB-L3_5                 0.89       0.00       0.00       0.82       0.00       0.03       0.03        0.01   406.28   0.033
  P_SUB-L4_2                 0.89       0.00       0.00       0.81       0.00       0.04       0.04        0.00   142.34   0.042
  P_SUB-L4_3                 0.89       0.00       0.00       0.81       0.00       0.03       0.03        0.01   250.97   0.038
  P_SUB-L5_0                 0.89       0.00       0.00       0.81       0.00       0.03       0.03        0.01   299.70   0.036
  P_SUB-L5_0A                0.89       0.00       0.00       0.81       0.00       0.03       0.03        0.01   253.43   0.037
  P_SUB-L6_0                 0.89       0.00       0.00       0.82       0.00       0.03       0.03        0.01   483.58   0.031
  P_SUB-L6_1                 0.89       0.00       0.00       0.81       0.00       0.03       0.03        0.01   238.42   0.038
  P_SUB-L6_2                 0.89       0.00       0.00       0.81       0.00       0.04       0.04        0.00    91.49   0.044
  P_SUB-L7_0                 0.89       0.00       0.00       0.81       0.00       0.04       0.04        0.01   172.46   0.040
  P_SUB-L8_0                 0.89       0.00       0.00       0.80       0.00       0.04       0.04        0.00    53.83   0.046
  P_SUB-L8_1                 0.89       0.00       0.00       0.80       0.00       0.04       0.04        0.00    61.55   0.045
  P_SUB-L9_0                 0.89       0.00       0.00       0.80       0.00       0.04       0.04        0.00    33.98   0.047
  P_SUB-L9_1                 0.89       0.00       0.00       0.80       0.00       0.04       0.04        0.00    41.40   0.047
  P_SUB-L9_2A                0.89       0.00       0.00       0.80       0.00       0.04       0.04        0.00    68.47   0.045
  P_SUB-L9_2X                0.89       0.00       0.00       0.81       0.00       0.04       0.04        0.00    94.48   0.044
  P_SUB-L9_2Y                0.89       0.00       0.00       0.80       0.00       0.04       0.04        0.00    80.33   0.044
  P_SUB-L9_3                 0.89       0.00       0.00       0.79       0.00       0.06       0.06        0.00   106.74   0.066
  P_SUB-L9_4                 0.89       0.00       0.00       0.76       0.00       0.09       0.09        0.00    12.52   0.097
  P_SUB-NN1                  0.89       0.00       0.00       0.80       0.00       0.04       0.04        0.00    65.85   0.045
  P_SUB-NN2                  0.89       0.00       0.00       0.81       0.00       0.03       0.03        0.01   245.81   0.038
  P_SUB-NN3                  0.89       0.00       0.00       0.81       0.00       0.04       0.04        0.00    88.53   0.044
  P_SUB-NN4                  0.89       0.00       0.00       0.82       0.00       0.03       0.03        0.01   440.65   0.032
  P_SUB-NN5                  0.89       0.00       0.00       0.80       0.00       0.04       0.04        0.00    55.80   0.046
  P_SUB-NN6                  0.89       0.00       0.00       0.80       0.00       0.04       0.04        0.00    47.98   0.046
  P_SUB-UDOT_1               0.89       0.00       0.00       0.81       0.00       0.04       0.04        0.00    88.72   0.044
  SUB-10_0A                  0.89       0.00       0.00       0.17       0.00       0.67       0.67        0.09  4451.89   0.753
  SUB-10_0X                  0.89       0.00       0.00       0.17       0.00       0.67       0.67        0.05  3051.97   0.755
  SUB-10_0Y                  0.89       0.00       0.00       0.17       0.00       0.67       0.67        0.07  3874.49   0.754
  SUB-10_1A                  0.89       0.00       0.00       0.17       0.00       0.67       0.67        0.09  4408.35   0.753
  SUB-10_3                   0.89       0.00       0.00       0.17       0.00       0.68       0.68        0.02  1134.89   0.759
  SUB-11_0X                  0.89       0.00       0.00       0.17       0.00       0.67       0.67        0.04  2130.80   0.757
  SUB-11_0Y                  0.89       0.00       0.00       0.17       0.00       0.67       0.67        0.10  4754.99   0.753
  SUB-11_1                   0.89       0.00       0.00       0.17       0.00       0.68       0.68        0.01   861.10   0.760
  SUB-11_2                   0.89       0.00       0.00       0.17       0.00       0.67       0.67        0.03  1932.16   0.757
  SUB-12_0                   0.89       0.00       0.00       0.17       0.00       0.68       0.68        0.02  1004.01   0.759
  SUB-12_1                   0.89       0.00       0.00       0.17       0.00       0.67       0.67        0.10  4691.65   0.753
  SUB-12_2                   0.89       0.00       0.00       0.17       0.00       0.67       0.67        0.08  4242.31   0.754
  SUB-12_3                   0.89       0.00       0.00       0.17       0.00       0.67       0.67        0.03  1707.88   0.758
  SUB-12_4                   0.89       0.00       0.00       0.17       0.00       0.67       0.67        0.03  1790.12   0.758
  SUB-13_0                   0.89       0.00       0.00       0.17       0.00       0.67       0.67        0.03  1738.81   0.758
  SUB-15_0X                  0.89       0.00       0.00       0.17       0.00       0.67       0.67        0.04  2390.59   0.756
  SUB-15_0Y                  0.89       0.00       0.00       0.17       0.00       0.67       0.67        0.15  6111.45   0.751
  SUB-15_1                   0.89       0.00       0.00       0.17       0.00       0.67       0.67        0.09  4525.41   0.753
  SUB-15_2                   0.89       0.00       0.00       0.17       0.00       0.68       0.68        0.01   606.03   0.763
  SUB-16_0                   0.89       0.00       0.00       0.18       0.00       0.67       0.67        0.22  8031.47   0.748
  SUB-17_0                   0.89       0.00       0.00       0.18       0.00       0.66       0.66        0.41 13873.49   0.743
  SUB-1_0BX                  0.89       0.00       0.00       0.17       0.00       0.67       0.67        0.17  6511.21   0.750
  SUB-1_0BY                  0.89       0.00       0.00       0.18       0.00       0.66       0.66        0.37 12642.40   0.744
  SUB-1_0X                   0.89       0.00       0.00       0.17       0.00       0.67       0.67        0.17  6650.08   0.750
  SUB-1_0Y                   0.89       0.00       0.00       0.18       0.00       0.66       0.66        0.28 10005.61   0.747
  SUB-1_0Z                   0.89       0.00       0.00       0.17       0.00       0.67       0.67        0.07  3902.85   0.754
  SUB-1_10                   0.89       0.00       0.00       0.17       0.00       0.67       0.67        0.10  4766.39   0.753
  SUB-1_12                   0.89       0.00       0.00       0.17       0.00       0.67       0.67        0.15  6012.51   0.751
  SUB-1_14A                  0.89       0.00       0.00       0.17       0.00       0.67       0.67        0.14  5957.79   0.751
  SUB-1_15X                  0.89       0.00       0.00       0.17       0.00       0.67       0.67        0.04  2521.43   0.756
  SUB-1_15Y                  0.89       0.00       0.00       0.17       0.00       0.67       0.67        0.05  2792.74   0.756
  SUB-1_16                   0.89       0.00       0.00       0.17       0.00       0.68       0.68        0.02  1014.96   0.759
  SUB-1_17                   0.89       0.00       0.00       0.17       0.00       0.67       0.67        0.17  6511.21   0.750
  SUB-1_20                   0.89       0.00       0.00       0.17       0.00       0.67       0.67        0.03  1635.32   0.758
  SUB-1_20B                  0.89       0.00       0.00       0.17       0.00       0.67       0.67        0.20  7395.45   0.749
  SUB-1_21                   0.89       0.00       0.00       0.17       0.00       0.67       0.67        0.15  6070.01   0.751
  SUB-1_22A                  0.89       0.00       0.00       0.17       0.00       0.67       0.67        0.08  4169.96   0.754
  SUB-1_23                   0.89       0.00       0.00       0.17       0.00       0.67       0.67        0.04  2199.09   0.757
  SUB-1_24                   0.89       0.00       0.00       0.17       0.00       0.67       0.67        0.03  1871.58   0.757
  SUB-1_25X                  0.89       0.00       0.00       0.17       0.00       0.67       0.67        0.12  5352.31   0.752
  SUB-1_25Y                  0.89       0.00       0.00       0.17       0.00       0.67       0.67        0.05  3001.09   0.755
  SUB-1_26                   0.89       0.00       0.00       0.17       0.00       0.67       0.67        0.09  4494.94   0.753
  SUB-1_28                   0.89       0.00       0.00       0.18       0.00       0.66       0.66        0.39 13103.10   0.744
  SUB-1_29                   0.89       0.00       0.00       0.17       0.00       0.67       0.67        0.09  4306.99   0.754
  SUB-1_31                   0.89       0.00       0.00       0.17       0.00       0.67       0.67        0.08  4109.80   0.754
  SUB-1_4X                   0.89       0.00       0.00       0.17       0.00       0.67       0.67        0.07  3663.28   0.755
  SUB-1_4Y                   0.89       0.00       0.00       0.17       0.00       0.67       0.67        0.07  3860.24   0.754
  SUB-1_5                    0.89       0.00       0.00       0.17       0.00       0.67       0.67        0.19  7247.79   0.749
  SUB-1_6                    0.89       0.00       0.00       0.17       0.00       0.67       0.67        0.04  2333.70   0.757
  SUB-1_7                    0.89       0.00       0.00       0.17       0.00       0.67       0.67        0.07  3729.90   0.754
  SUB-1_8                    0.89       0.00       0.00       0.17       0.00       0.67       0.67        0.10  4922.35   0.753
  SUB-1_9                    0.89       0.00       0.00       0.17       0.00       0.67       0.67        0.12  5303.90   0.752
  SUB-200S_0                 0.89       0.00       0.00       0.18       0.00       0.67       0.67        0.22  8137.44   0.748
  SUB-200S_1                 0.89       0.00       0.00       0.18       0.00       0.66       0.66        0.42 14087.43   0.743
  SUB-200S_10                0.89       0.00       0.00       0.17       0.00       0.67       0.67        0.04  2343.21   0.757
  SUB-200S_11P               0.89       0.00       0.00       0.17       0.00       0.67       0.67        0.03  1800.34   0.757
  SUB-200S_2                 0.89       0.00       0.00       0.18       0.00       0.66       0.66        0.29 10440.82   0.746
  SUB-200S_3                 0.89       0.00       0.00       0.17       0.00       0.67       0.67        0.13  5525.36   0.752
  SUB-200S_4                 0.89       0.00       0.00       0.17       0.00       0.67       0.67        0.13  5534.45   0.752
  SUB-200S_5                 0.89       0.00       0.00       0.17       0.00       0.67       0.67        0.12  5376.24   0.752
  SUB-200S_6                 0.89       0.00       0.00       0.17       0.00       0.67       0.67        0.04  2111.17   0.757
  SUB-200S_7                 0.89       0.00       0.00       0.17       0.00       0.67       0.67        0.05  2810.40   0.756
  SUB-200S_8                 0.89       0.00       0.00       0.17       0.00       0.67       0.67        0.07  3895.78   0.754
  SUB-200S_9                 0.89       0.00       0.00       0.17       0.00       0.67       0.67        0.10  4777.75   0.753
  SUB-28_01                  0.89       0.00       0.00       0.17       0.00       0.67       0.67        0.12  5366.69   0.752
  SUB-28_02                  0.89       0.00       0.00       0.17       0.00       0.68       0.68        0.01   683.89   0.761
  SUB-28_03                  0.89       0.00       0.00       0.17       0.00       0.68       0.68        0.01   337.50   0.764
  SUB-28_2                   0.89       0.00       0.00       0.17       0.00       0.68       0.68        0.01   772.65   0.760
  SUB-28_3                   0.89       0.00       0.00       0.17       0.00       0.67       0.67        0.05  2658.57   0.756
  SUB-28_4X                  0.89       0.00       0.00       0.17       0.00       0.68       0.68        0.01   326.27   0.764
  SUB-28_4Y                  0.89       0.00       0.00       0.17       0.00       0.69       0.69        0.00    22.47   0.779
  SUB-28_5X                  0.89       0.00       0.00       0.17       0.00       0.68       0.68        0.01   761.57   0.760
  SUB-28_5Y                  0.89       0.00       0.00       0.17       0.00       0.68       0.68        0.01   894.17   0.760
  SUB-2_0                    0.89       0.00       0.00       0.17       0.00       0.67       0.67        0.03  2012.23   0.757
  SUB-2_1                    0.89       0.00       0.00       0.17       0.00       0.67       0.67        0.04  2567.40   0.756
  SUB-2_1A                   0.89       0.00       0.00       0.17       0.00       0.67       0.67        0.11  4965.69   0.753
  SUB-2_3X                   0.89       0.00       0.00       0.17       0.00       0.67       0.67        0.13  5610.69   0.752
  SUB-2_3Y                   0.89       0.00       0.00       0.17       0.00       0.67       0.67        0.09  4543.57   0.753
  SUB-2_4                    0.89       0.00       0.00       0.17       0.00       0.67       0.67        0.04  2120.99   0.757
  SUB-2_5                    0.89       0.00       0.00       0.17       0.00       0.67       0.67        0.14  5749.30   0.751
  SUB-3_0                    0.89       0.00       0.00       0.17       0.00       0.67       0.67        0.03  1562.20   0.758
  SUB-3_1                    0.89       0.00       0.00       0.17       0.00       0.68       0.68        0.02  1350.44   0.758
  SUB-4_0                    0.89       0.00       0.00       0.17       0.00       0.67       0.67        0.11  5013.81   0.752
  SUB-4_1                    0.89       0.00       0.00       0.17       0.00       0.67       0.67        0.07  3542.43   0.755
  SUB-4_2                    0.89       0.00       0.00       0.17       0.00       0.67       0.67        0.03  1972.30   0.757
  SUB-4_3                    0.89       0.00       0.00       0.17       0.00       0.67       0.67        0.07  3845.95   0.754
  SUB-4_5                    0.89       0.00       0.00       0.17       0.00       0.67       0.67        0.14  5914.05   0.751
  SUB-5_0                    0.89       0.00       0.00       0.18       0.00       0.66       0.66        0.31 10796.15   0.746
  SUB-5_2                    0.89       0.00       0.00       0.17       0.00       0.67       0.67        0.03  1635.32   0.758
  SUB-6_0                    0.89       0.00       0.00       0.17       0.00       0.67       0.67        0.04  2081.62   0.757
  SUB-6_2                    0.89       0.00       0.00       0.17       0.00       0.67       0.67        0.13  5632.76   0.752
  SUB-6_2B                   0.89       0.00       0.00       0.17       0.00       0.67       0.67        0.09  4395.82   0.753
  SUB-7_0                    0.89       0.00       0.00       0.17       0.00       0.67       0.67        0.08  4096.32   0.754
  SUB-7_1                    0.89       0.00       0.00       0.17       0.00       0.67       0.67        0.08  4136.65   0.754
  SUB-8_0                    0.89       0.00       0.00       0.17       0.00       0.67       0.67        0.13  5641.55   0.751
  SUB-8_1                    0.89       0.00       0.00       0.17       0.00       0.68       0.68        0.02  1058.67   0.759
  SUB-8_4C                   0.89       0.00       0.00       0.18       0.00       0.67       0.67        0.23  8413.17   0.748
  SUB-8_5                    0.89       0.00       0.00       0.17       0.00       0.68       0.68        0.02  1243.10   0.759
  SUB-8_7                    0.89       0.00       0.00       0.17       0.00       0.67       0.67        0.08  4209.58   0.754
  SUB-9_3                    0.89       0.00       0.00       0.17       0.00       0.67       0.67        0.04  2091.48   0.757
  SUB-9_6                    0.89       0.00       0.00       0.17       0.00       0.67       0.67        0.05  2863.06   0.756
  SUB-L10_0                  0.89       0.00       0.00       0.17       0.00       0.67       0.67        0.18  6929.17   0.750
  SUB-L10_0B                 0.89       0.00       0.00       0.17       0.00       0.67       0.67        0.03  1697.55   0.758
  SUB-L10_1                  0.89       0.00       0.00       0.17       0.00       0.68       0.68        0.02  1339.75   0.758
  SUB-L10_1A                 0.89       0.00       0.00       0.17       0.00       0.67       0.67        0.11  4992.50   0.753
  SUB-L10_2                  0.89       0.00       0.00       0.17       0.00       0.68       0.68        0.01   839.02   0.760
  SUB-L10_2A                 0.89       0.00       0.00       0.17       0.00       0.67       0.67        0.08  4096.32   0.754
  SUB-L10_2B                 0.89       0.00       0.00       0.17       0.00       0.68       0.68        0.01   827.97   0.760
  SUB-L10_2C                 0.89       0.00       0.00       0.17       0.00       0.67       0.67        0.06  3143.99   0.755
  SUB-L10_2D                 0.89       0.00       0.00       0.17       0.00       0.67       0.67        0.07  3715.18   0.754
  SUB-L10_3                  0.89       0.00       0.00       0.17       0.00       0.68       0.68        0.02  1275.40   0.759
  SUB-L10_3A                 0.89       0.00       0.00       0.17       0.00       0.68       0.68        0.02  1102.27   0.759
  SUB-L10_5                  0.89       0.00       0.00       0.17       0.00       0.67       0.67        0.12  5479.50   0.752
  SUB-L11_11                 0.89       0.00       0.00       0.17       0.00       0.71       0.71        0.00    11.24   0.803
  SUB-L11_12                 0.89       0.00       0.00       0.17       0.00       0.68       0.68        0.01   794.79   0.760
  SUB-L11_13                 0.89       0.00       0.00       0.17       0.00       0.68       0.68        0.01   371.16   0.763
  SUB-L11_14                 0.89       0.00       0.00       0.17       0.00       0.67       0.67        0.03  1992.29   0.757
  SUB-L11_3                  0.89       0.00       0.00       0.17       0.00       0.71       0.71        0.00    11.24   0.803
  SUB-L11_9                  0.89       0.00       0.00       0.17       0.00       0.69       0.69        0.00    78.81   0.775
  SUB-L12_15                 0.89       0.00       0.00       0.17       0.00       0.67       0.67        0.03  1562.20   0.758
  SUB-L12_17                 0.89       0.00       0.00       0.17       0.00       0.67       0.67        0.09  4414.60   0.753
  SUB-L12_20                 0.89       0.00       0.00       0.17       0.00       0.67       0.67        0.09  4615.37   0.753
  SUB-L12_20C                0.89       0.00       0.00       0.17       0.00       0.67       0.67        0.12  5308.78   0.752
  SUB-L12_21                 0.89       0.00       0.00       0.17       0.00       0.67       0.67        0.03  1738.81   0.758
  SUB-L12_6                  0.89       0.00       0.00       0.17       0.00       0.68       0.68        0.01   561.39   0.761
  SUB-L13_0                  0.89       0.00       0.00       0.17       0.00       0.67       0.67        0.03  1830.95   0.757
  SUB-L13_1                  0.89       0.00       0.00       0.17       0.00       0.67       0.67        0.09  4306.99   0.754
  SUB-L14_0                  0.89       0.00       0.00       0.17       0.00       0.67       0.67        0.03  1541.21   0.758
  SUB-L14_1                  0.89       0.00       0.00       0.17       0.00       0.68       0.68        0.01   717.21   0.760
  SUB-L14_2                  0.89       0.00       0.00       0.17       0.00       0.68       0.68        0.02   960.15   0.759
  SUB-L15_3                  0.89       0.00       0.00       0.17       0.00       0.68       0.68        0.01   438.41   0.762
  SUB-L15_4                  0.89       0.00       0.00       0.17       0.00       0.68       0.68        0.01   471.99   0.762
  SUB-L15_5                  0.89       0.00       0.00       0.17       0.00       0.68       0.68        0.00   180.12   0.768
  SUB-L16_1                  0.89       0.00       0.00       0.17       0.00       0.67       0.67        0.11  5184.77   0.752
  SUB-L17_0                  0.89       0.00       0.00       0.17       0.00       0.67       0.67        0.17  6492.98   0.750
  SUB-L18_0                  0.89       0.00       0.00       0.17       0.00       0.67       0.67        0.19  7132.92   0.749
  SUB-L19_0                  0.89       0.00       0.00       0.17       0.00       0.69       0.69        0.00    22.47   0.779
  SUB-L19_1                  0.89       0.00       0.00       0.17       0.00       0.67       0.67        0.04  2305.07   0.757
  SUB-L1_0                   0.89       0.00       0.00       0.17       0.00       0.67       0.67        0.07  3557.71   0.755
  SUB-L1_1                   0.89       0.00       0.00       0.17       0.00       0.67       0.67        0.09  4370.64   0.753
  SUB-L1_11                  0.89       0.00       0.00       0.17       0.00       0.68       0.68        0.00   168.87   0.769
  SUB-L1_11A                 0.89       0.00       0.00       0.17       0.00       0.67       0.67        0.13  5632.76   0.752
  SUB-L1_11B                 0.89       0.00       0.00       0.17       0.00       0.69       0.69        0.00   123.84   0.773
  SUB-L1_13                  0.89       0.00       0.00       0.17       0.00       0.67       0.67        0.08  4261.83   0.754
  SUB-L1_14AX                0.89       0.00       0.00       0.17       0.00       0.68       0.68        0.01   550.23   0.761
  SUB-L1_14AY                0.89       0.00       0.00       0.17       0.00       0.67       0.67        0.12  5381.01   0.752
  SUB-L1_15                  0.89       0.00       0.00       0.17       0.00       0.68       0.68        0.00   191.37   0.768
  SUB-L1_15A                 0.89       0.00       0.00       0.17       0.00       0.69       0.69        0.00    22.47   0.779
  SUB-L1_15B                 0.89       0.00       0.00       0.17       0.00       0.67       0.67        0.04  2160.14   0.757
  SUB-L1_18A                 0.89       0.00       0.00       0.17       0.00       0.67       0.67        0.09  4364.32   0.753
  SUB-L1_2                   0.89       0.00       0.00       0.17       0.00       0.67       0.67        0.04  2381.14   0.756
  SUB-L1_4                   0.89       0.00       0.00       0.17       0.00       0.68       0.68        0.01   861.10   0.760
  SUB-L1_5                   0.89       0.00       0.00       0.17       0.00       0.67       0.67        0.02  1467.41   0.758
  SUB-L1_6                   0.89       0.00       0.00       0.17       0.00       0.68       0.68        0.01   728.31   0.760
  SUB-L1_7                   0.89       0.00       0.00       0.17       0.00       0.67       0.67        0.03  1624.90   0.758
  SUB-L1_8                   0.89       0.00       0.00       0.17       0.00       0.67       0.67        0.07  3722.54   0.754
  SUB-L1_9                   0.89       0.00       0.00       0.17       0.00       0.67       0.67        0.13  5732.31   0.751
  SUB-L1_9BV                 0.89       0.00       0.00       0.17       0.00       0.67       0.67        0.14  5812.15   0.751
  SUB-L1_9BX                 0.89       0.00       0.00       0.17       0.00       0.68       0.68        0.02  1014.96   0.759
  SUB-L1_9BY                 0.89       0.00       0.00       0.17       0.00       0.67       0.67        0.03  1583.15   0.758
  SUB-L1_9BZ                 0.89       0.00       0.00       0.17       0.00       0.67       0.67        0.13  5719.51   0.751
  SUB-L20_0                  0.89       0.00       0.00       0.17       0.00       0.67       0.67        0.08  3959.02   0.754
  SUB-L21_0                  0.89       0.00       0.00       0.17       0.00       0.67       0.67        0.13  5584.00   0.752
  SUB-L22_0                  0.89       0.00       0.00       0.18       0.00       0.66       0.66        0.28  9828.03   0.747
  SUB-L22_1                  0.89       0.00       0.00       0.18       0.00       0.66       0.66        0.44 14484.72   0.743
  SUB-L22_5                  0.89       0.00       0.00       0.17       0.00       0.68       0.68        0.01   717.21   0.760
  SUB-L22_6                  0.89       0.00       0.00       0.17       0.00       0.68       0.68        0.01   594.85   0.761
  SUB-L23_1                  0.89       0.00       0.00       0.17       0.00       0.71       0.71        0.00    11.24   0.803
  SUB-L24_0                  0.89       0.00       0.00       0.17       0.00       0.67       0.67        0.04  2111.17   0.757
  SUB-L24_1                  0.89       0.00       0.00       0.17       0.00       0.68       0.68        0.01   561.39   0.761
  SUB-L24_2                  0.89       0.00       0.00       0.17       0.00       0.67       0.67        0.08  3952.04   0.754
  SUB-L24_3                  0.89       0.00       0.00       0.17       0.00       0.68       0.68        0.01   550.23   0.761
  SUB-L24_4                  0.89       0.00       0.00       0.17       0.00       0.67       0.67        0.11  5008.50   0.753
  SUB-L24_5                  0.89       0.00       0.00       0.17       0.00       0.68       0.68        0.02  1210.73   0.759
  SUB-L25_0                  0.89       0.00       0.00       0.17       0.00       0.67       0.67        0.03  1861.44   0.757
  SUB-L25_2                  0.89       0.00       0.00       0.17       0.00       0.67       0.67        0.03  1790.12   0.758
  SUB-L25_3                  0.89       0.00       0.00       0.17       0.00       0.68       0.68        0.01   315.04   0.764
  SUB-L25_4                  0.89       0.00       0.00       0.17       0.00       0.67       0.67        0.05  2676.64   0.756
  SUB-L25_5                  0.89       0.00       0.00       0.17       0.00       0.67       0.67        0.14  5941.96   0.751
  SUB-L2_0                   0.89       0.00       0.00       0.17       0.00       0.67       0.67        0.09  4573.65   0.753
  SUB-L2_0A                  0.89       0.00       0.00       0.17       0.00       0.68       0.68        0.01   427.21   0.762
  SUB-L2_0B                  0.89       0.00       0.00       0.17       0.00       0.68       0.68        0.01   527.89   0.761
  SUB-L2_0D                  0.89       0.00       0.00       0.17       0.00       0.68       0.68        0.01   416.01   0.763
  SUB-L2_0H                  0.89       0.00       0.00       0.17       0.00       0.67       0.67        0.03  1520.18   0.758
  SUB-L2_0I                  0.89       0.00       0.00       0.17       0.00       0.68       0.68        0.00   281.34   0.765
  SUB-L2_0J                  0.89       0.00       0.00       0.17       0.00       0.67       0.67        0.03  1593.60   0.758
  SUB-L2_0L                  0.89       0.00       0.00       0.17       0.00       0.69       0.69        0.00    22.47   0.779
  SUB-L2_0M                  0.89       0.00       0.00       0.17       0.00       0.68       0.68        0.01   348.73   0.764
  SUB-L2_0N                  0.89       0.00       0.00       0.17       0.00       0.67       0.67        0.04  2428.24   0.756
  SUB-L3_1                   0.89       0.00       0.00       0.17       0.00       0.67       0.67        0.17  6480.82   0.750
  SUB-L3_2                   0.89       0.00       0.00       0.17       0.00       0.67       0.67        0.03  2032.12   0.757
  SUB-L3_3                   0.89       0.00       0.00       0.17       0.00       0.67       0.67        0.06  3152.28   0.755
  SUB-L3_5                   0.89       0.00       0.00       0.18       0.00       0.67       0.67        0.25  9151.58   0.747
  SUB-L4_2                   0.89       0.00       0.00       0.17       0.00       0.67       0.67        0.09  4351.65   0.753
  SUB-L4_3                   0.89       0.00       0.00       0.17       0.00       0.67       0.67        0.12  5460.97   0.752
  SUB-L5_0                   0.89       0.00       0.00       0.17       0.00       0.67       0.67        0.08  4028.22   0.754
  SUB-L5_0A                  0.89       0.00       0.00       0.17       0.00       0.67       0.67        0.06  3299.19   0.755
  SUB-L6_0                   0.89       0.00       0.00       0.17       0.00       0.67       0.67        0.13  5650.31   0.751
  SUB-L6_1                   0.89       0.00       0.00       0.17       0.00       0.67       0.67        0.06  3234.42   0.755
  SUB-L6_2                   0.89       0.00       0.00       0.17       0.00       0.67       0.67        0.03  1820.76   0.757
  SUB-L7_0                   0.89       0.00       0.00       0.17       0.00       0.67       0.67        0.13  5663.41   0.751
  SUB-L8_0                   0.89       0.00       0.00       0.17       0.00       0.67       0.67        0.03  1912.02   0.757
  SUB-L8_1                   0.89       0.00       0.00       0.17       0.00       0.67       0.67        0.04  2247.47   0.757
  SUB-L9_0                   0.89       0.00       0.00       0.17       0.00       0.68       0.68        0.02  1307.62   0.759
  SUB-L9_1                   0.89       0.00       0.00       0.17       0.00       0.67       0.67        0.02  1456.83   0.758
  SUB-L9_2A                  0.89       0.00       0.00       0.17       0.00       0.67       0.67        0.06  3085.62   0.755
  SUB-L9_2X                  0.89       0.00       0.00       0.17       0.00       0.67       0.67        0.07  3707.80   0.754
  SUB-L9_2Y                  0.89       0.00       0.00       0.17       0.00       0.67       0.67        0.06  3347.22   0.755
  SUB-L9_3                   0.89       0.00       0.00       0.17       0.00       0.67       0.67        0.05  2906.56   0.756
  SUB-L9_4                   0.89       0.00       0.00       0.17       0.00       0.68       0.68        0.01   348.73   0.764
  SUB-NN1                    0.89       0.00       0.00       0.17       0.00       0.67       0.67        0.06  3457.51   0.755
  SUB-NN2                    0.89       0.00       0.00       0.17       0.00       0.67       0.67        0.13  5579.52   0.752
  SUB-NN3                    0.89       0.00       0.00       0.17       0.00       0.67       0.67        0.03  1891.82   0.757
  SUB-NN4                    0.89       0.00       0.00       0.17       0.00       0.67       0.67        0.08  4183.21   0.754
  SUB-NN5                    0.89       0.00       0.00       0.17       0.00       0.67       0.67        0.04  2333.70   0.757
  SUB-NN6                    0.89       0.00       0.00       0.17       0.00       0.67       0.67        0.03  1697.55   0.758
  SUB-UDOT_1                 0.89       0.00       0.00       0.17       0.00       0.67       0.67        0.16  6337.52   0.750
  _OREM_1                    0.89       0.00       0.00       0.69       0.00       0.16       0.16        0.17  4772.95   0.175
  _OREM_2                    0.89       0.00       0.00       0.66       0.00       0.18       0.18        0.09  3033.04   0.206
  _OREM_3                    0.89       0.00       0.00       0.66       0.00       0.18       0.18        0.13  4371.93   0.205
  _OREM_4                    0.89       0.00       0.00       0.67       0.00       0.17       0.17        0.26  7976.04   0.196
  
  
  ******************
  Node Depth Summary
  ******************
  
  ---------------------------------------------------------------------------------
                                 Average  Maximum  Maximum  Time of Max    Reported
                                   Depth    Depth      HGL   Occurrence   Max Depth
  Node                 Type         Feet     Feet     Feet  days hr:min        Feet
  ---------------------------------------------------------------------------------
  1-17B                JUNCTION     1.10     5.24  4649.44     0  04:29        5.24
  10_0                 JUNCTION     0.08     4.20  4701.20     0  04:08        4.20
  10_0A                JUNCTION     0.05     4.01  4659.01     0  04:09        4.01
  10_1                 JUNCTION     0.05     0.63  4635.63     0  04:18        0.63
  10_1A                JUNCTION     0.10     1.33  4624.33     0  04:16        1.33
  10_2                 JUNCTION     0.09     0.85  4619.85     0  04:13        0.85
  10_2A                JUNCTION     0.27     2.72  4636.02     0  04:20        2.72
  10_3                 JUNCTION     0.22     1.15  4619.65     0  04:21        1.15
  11_0                 JUNCTION     0.25     3.03  4716.03     0  04:07        2.18
  11_0A                JUNCTION     0.18     2.01  4712.11     0  04:15        2.00
  11_0B                JUNCTION     0.19     3.78  4708.78     0  04:16        3.78
  11_1                 JUNCTION     5.93     6.68  4704.48     0  04:16        6.68
  11_1A                JUNCTION     0.14     0.88  4698.18     0  04:16        0.87
  11_1B                JUNCTION     0.13     0.80  4669.10     0  04:16        0.80
  11_1C                JUNCTION     0.20     2.22  4642.22     0  04:19        2.21
  11_2                 JUNCTION     0.22     2.72  4637.72     0  04:17        2.72
  11_2A                JUNCTION     0.23     2.61  4636.11     0  04:15        2.34
  12_1                 JUNCTION     0.04     0.47  4684.97     0  04:10        0.47
  12_2                 JUNCTION     0.17     1.82  4629.92     0  04:33        1.82
  12_3                 JUNCTION     0.09     0.86  4628.26     0  04:16        0.86
  12_4                 JUNCTION     0.10     1.06  4621.16     0  04:16        1.06
  12_4A                JUNCTION     0.07     0.67  4610.17     0  04:16        0.67
  12_4B                JUNCTION     0.07     0.74  4597.94     0  04:16        0.74
  13_0                 JUNCTION     0.04     0.79  4631.19     0  04:07        0.79
  14_0                 JUNCTION     0.00     0.00  4766.00     0  00:00        0.00
  14_0A                JUNCTION     0.00     0.00  4759.00     0  00:00        0.00
  14_1                 JUNCTION     0.00     0.00  4757.40     0  00:00        0.00
  14_1A                JUNCTION     0.00     0.00  4756.50     0  00:00        0.00
  14_2                 JUNCTION     0.00     0.00  4747.00     0  00:00        0.00
  14_3                 JUNCTION     0.00     0.00  4745.10     0  00:00        0.00
  15_0                 JUNCTION     0.24     6.49  4659.49     0  04:14        6.49
  15_1_1               JUNCTION     0.34     6.73  4656.73     0  04:15        6.73
  15_2                 JUNCTION     0.25     5.01  4653.01     0  04:08        5.01
  16_0                 JUNCTION     0.08     0.56  4706.56     0  04:55        0.56
  17_0                 JUNCTION     0.20     0.78  4567.58     0  04:14        0.78
  1_0A                 JUNCTION     0.27     0.46  4852.71     0  04:09        0.46
  1_0C                 JUNCTION     1.05     3.36  4845.28     0  04:29        3.36
  1_1                  JUNCTION     0.27     0.57  4831.27     0  05:03        0.57
  1_10                 JUNCTION     0.51     6.73  4734.03     0  04:10        5.25
  1_10A                JUNCTION     0.43     3.79  4727.89     0  04:12        3.19
  1_11                 JUNCTION     0.00     0.00  4723.10     0  00:00        0.00
  1_12                 JUNCTION     0.21     1.10  4721.60     0  04:13        1.10
  1_12A                JUNCTION     0.32     1.80  4715.70     0  04:13        1.80
  1_13                 JUNCTION     0.34     2.23  4710.23     0  04:14        2.23
  1_13A                JUNCTION     0.26     1.36  4700.26     0  04:15        1.36
  1_14                 JUNCTION     0.35     2.41  4687.21     0  04:41        2.41
  1_14A                JUNCTION     3.04    15.70  4688.00     0  04:11       13.41
  1_15A                JUNCTION     3.51    15.02  4683.92     0  05:12       15.02
  1_15C                JUNCTION     2.62    10.80  4666.30     0  05:09       10.80
  1_16                 JUNCTION     1.70     7.11  4654.91     0  04:35        7.11
  1_17                 JUNCTION     1.23     5.45  4649.75     0  04:28        5.45
  1_17A                JUNCTION     1.06     4.20  4644.00     0  04:11        4.20
  1_17B                JUNCTION     1.32     4.05  4640.45     0  04:12        4.05
  1_18                 JUNCTION     0.30     1.18  4637.28     0  04:18        1.18
  1_18A                JUNCTION     0.81     3.51  4636.01     0  04:11        2.90
  1_19                 JUNCTION     0.48     1.91  4634.01     0  04:09        1.80
  1_19A                JUNCTION     0.54     2.26  4627.16     0  04:22        2.25
  1_2                  JUNCTION     0.31     0.66  4818.16     0  07:51        0.66
  1_20                 JUNCTION     0.62     4.20  4621.00     0  04:17        3.62
  1_20A                JUNCTION     0.44     1.54  4614.34     0  04:26        1.54
  1_20B                JUNCTION     0.46     1.78  4611.48     0  04:19        1.78
  1_20C                JUNCTION     0.63     7.50  4602.00     0  04:17        6.24
  1_20D                JUNCTION     0.58     3.86  4621.01     0  04:17        3.86
  1_20E                JUNCTION     0.76     3.60  4621.01     0  04:18        3.53
  1_20F                JUNCTION     0.58     3.54  4621.16     0  04:25        3.54
  1_21                 JUNCTION     0.82     3.40  4591.27     0  04:19        3.39
  1_21A                JUNCTION     0.71     2.79  4589.14     0  04:20        2.79
  1_22                 JUNCTION     1.07     3.11  4586.65     0  04:22        3.11
  1_22A                JUNCTION     0.66     2.61  4586.00     0  04:22        2.61
  1_22B                JUNCTION     0.72     3.34  4585.54     0  04:23        3.34
  1_22C                JUNCTION     1.31     3.82  4585.31     0  04:21        3.82
  1_23                 JUNCTION     0.89     2.87  4584.67     0  04:22        2.87
  1_23A                JUNCTION     0.67     3.39  4583.88     0  04:42        3.39
  1_24                 JUNCTION     0.66     2.28  4581.61     0  04:21        2.28
  1_24A                JUNCTION     1.37     2.77  4577.47     0  04:24        2.77
  1_25                 JUNCTION     0.65     2.29  4575.79     0  04:23        2.29
  1_25A                JUNCTION     0.84     3.19  4571.89     0  04:24        3.19
  1_25B                JUNCTION     0.85     3.71  4570.61     0  04:30        3.71
  1_25C                JUNCTION     0.98     3.94  4570.24     0  04:29        3.94
  1_26                 JUNCTION     0.65     2.26  4567.06     0  04:29        2.26
  1_26A                JUNCTION     0.75     2.71  4560.21     0  04:26        2.71
  1_26B                JUNCTION     1.04     6.20  4558.00     0  04:25        5.02
  1_27                 JUNCTION     1.27     5.80  4557.00     0  04:25        5.13
  1_28                 JUNCTION     1.27     3.77  4551.67     0  04:28        3.77
  1_29                 JUNCTION     0.66     2.49  4546.89     0  04:28        2.48
  1_2A                 JUNCTION     0.31     0.81  4802.91     0  04:15        0.79
  1_2B                 JUNCTION     0.58     2.28  4788.58     0  04:19        1.36
  1_3                  JUNCTION     0.47     1.28  4786.28     0  04:15        1.05
  1_30                 JUNCTION     1.00     3.35  4543.35     0  04:30        3.35
  1_31                 JUNCTION     0.17     0.62  4515.62     0  05:01        0.62
  1_31A                JUNCTION     0.70     1.26  4506.17     0  07:07        1.26
  1_31B                JUNCTION     0.55     1.09  4499.10     0  07:14        1.09
  1_31C                JUNCTION     1.02     1.99  4498.39     0  07:22        1.99
  1_3A                 JUNCTION     0.00     0.00  4793.20     0  00:00        0.00
  1_4                  JUNCTION     0.38     7.19  4786.39     0  04:15        5.36
  1_4A                 JUNCTION     0.03     5.32  4785.72     0  04:15        3.77
  1_5                  JUNCTION     0.33     7.05  4785.55     0  04:15        5.69
  1_6                  JUNCTION     0.44     5.69  4772.39     0  04:20        5.69
  1_7                  JUNCTION     0.47     6.03  4754.43     0  04:23        6.03
  1_8                  JUNCTION     0.51     6.30  4745.00     0  04:11        5.45
  1_8A                 JUNCTION     0.48     5.37  4741.57     0  04:22        5.37
  1_9                  JUNCTION     0.53     6.08  4738.88     0  04:19        6.08
  200S_10              JUNCTION     0.33     4.49  4640.49     0  04:35        4.49
  200S_11P             JUNCTION     0.34     1.24  4640.24     0  04:28        1.24
  200S_4               JUNCTION     0.53     5.00  4720.21     0  04:23        4.33
  200S_5               JUNCTION     0.83     4.47  4708.47     0  04:28        4.47
  200S_6               JUNCTION     0.76     5.35  4713.89     0  04:24        5.34
  200S_7               JUNCTION     0.54     3.44  4673.44     0  04:29        3.44
  200S_8               JUNCTION     0.09     0.84  4661.84     0  04:07        0.84
  200S_9               JUNCTION     0.17     3.35  4649.35     0  04:17        3.35
  28_0                 JUNCTION     1.93     4.07  4504.11     0  08:57        4.07
  28_01                JUNCTION     0.13     1.34  4502.94     0  04:10        1.34
  28_02                JUNCTION     0.35     5.68  4501.88     0  04:08        4.29
  28_03                JUNCTION     0.47     4.12  4499.40     0  04:08        3.52
  28_04                JUNCTION     0.37     1.87  4496.37     0  04:12        1.87
  28_05                JUNCTION     0.26     1.14  4494.54     0  04:19        1.14
  28_1                 JUNCTION     2.61     5.20  4504.05     0  09:14        5.20
  28_2                 JUNCTION     1.36     1.76  4497.76     0  08:47        1.76
  28_3                 JUNCTION     0.18     0.80  4494.92     0  04:08        0.80
  28_4                 JUNCTION     0.37     1.22  4493.72     0  04:12        1.22
  28_5                 JUNCTION     0.33     1.13  4492.09     0  04:18        1.13
  28_6                 JUNCTION     0.65     2.10  4489.27     0  04:22        2.10
  28_7                 JUNCTION     0.42     1.51  4488.41     0  04:23        1.51
  2_0                  JUNCTION     0.09     1.44  4787.14     0  04:10        1.44
  2_0A                 JUNCTION     0.03     0.45  4785.85     0  04:13        0.45
  2_0B                 JUNCTION     0.04     0.57  4783.77     0  04:13        0.57
  2_1                  JUNCTION     0.04     0.77  4781.27     0  04:07        0.77
  2_1A                 JUNCTION     0.06     1.36  4768.56     0  04:08        1.36
  2_2                  JUNCTION     0.16     2.59  4743.19     0  04:22        2.59
  2_3                  JUNCTION     0.26     3.77  4739.47     0  04:23        3.77
  2_4                  JUNCTION     0.07     0.79  4725.59     0  04:22        0.79
  2_5                  JUNCTION     0.16     1.67  4702.87     0  04:20        1.66
  2_6                  JUNCTION     0.40     8.02  4697.02     0  04:14        8.01
  2_6A                 JUNCTION     0.43     7.60  4695.00     0  04:13        6.82
  3_0                  JUNCTION     0.03     0.77  4784.37     0  04:07        0.75
  3_1                  JUNCTION     0.04     0.93  4782.63     0  04:07        0.93
  4_0                  JUNCTION     0.03     0.73  4872.43     0  04:07        0.70
  4_0A                 JUNCTION     0.03     0.65  4869.35     0  04:07        0.65
  4_0B                 JUNCTION     0.09     4.04  4866.04     0  04:07        4.03
  4_1                  JUNCTION     0.17     3.97  4863.97     0  04:10        3.97
  4_1A                 JUNCTION     0.14     2.99  4862.59     0  04:17        2.99
  4_1B                 JUNCTION     0.05     0.83  4859.33     0  04:17        0.83
  4_2                  JUNCTION     0.05     0.87  4853.37     0  04:16        0.87
  4_2A                 JUNCTION     0.16     5.46  4839.96     0  04:16        5.45
  4_2B                 JUNCTION     0.05     0.86  4833.06     0  04:16        0.86
  4_2C                 JUNCTION     0.05     0.80  4811.40     0  04:17        0.80
  4_2D                 JUNCTION     0.08     2.11  4791.91     0  04:13        1.80
  4_3                  JUNCTION     0.08     0.90  4789.40     0  04:07        0.87
  4_3A                 JUNCTION     0.12     1.38  4776.68     0  04:16        1.38
  4_3B                 JUNCTION     0.11     1.21  4773.01     0  04:16        1.21
  4_3C                 JUNCTION     0.11     1.28  4763.18     0  04:16        1.28
  4_3D                 JUNCTION     0.11     1.25  4750.55     0  04:17        1.25
  4_4A                 JUNCTION     0.44     7.26  4741.76     0  04:20        7.26
  4_4B                 JUNCTION     0.48     6.95  4740.25     0  04:29        6.95
  4_4C                 JUNCTION     0.35     5.09  4737.59     0  04:28        5.09
  4_4D                 JUNCTION     0.30     4.12  4735.72     0  04:26        4.12
  4_4E                 JUNCTION     0.20     3.34  4734.24     0  04:25        3.34
  4_5                  JUNCTION     0.29     5.33  4732.83     0  04:23        5.33
  4_5A                 JUNCTION     0.33     7.78  4734.78     0  04:15        5.59
  4_5B                 JUNCTION     0.35    10.10  4736.80     0  04:15        5.55
  4_5C                 JUNCTION     0.29     9.20  4735.00     0  04:15        4.76
  4_5D                 JUNCTION     0.37     5.57  4727.47     0  04:29        5.57
  4_5E                 JUNCTION     0.10     0.94  4718.74     0  04:30        0.94
  4_5F                 JUNCTION     0.20     2.13  4707.43     0  04:32        2.13
  5_0A                 JUNCTION     0.08     0.66  4831.16     0  04:53        0.66
  5_1                  JUNCTION     0.06     0.48  4821.08     0  04:53        0.48
  5_1A                 JUNCTION     0.08     0.65  4809.85     0  04:53        0.65
  5_2                  JUNCTION     0.21     2.11  4794.11     0  04:52        2.11
  6_0                  JUNCTION     0.02     0.67  4783.67     0  04:07        0.66
  6_0A                 JUNCTION     0.02     0.43  4776.43     0  04:07        0.41
  6_1                  JUNCTION     0.03     0.56  4771.26     0  04:08        0.56
  6_1A                 JUNCTION     0.02     0.55  4758.45     0  04:08        0.54
  6_2                  JUNCTION     0.05     1.13  4757.43     0  04:08        1.13
  6_2A                 JUNCTION     0.05     1.31  4750.41     0  04:08        1.15
  6_2B                 JUNCTION     0.20     5.41  4743.71     0  04:16        5.41
  7_0                  JUNCTION     0.05     0.82  4772.32     0  04:07        0.81
  7_0A                 JUNCTION     0.05     0.74  4764.24     0  04:08        0.73
  7_0B                 JUNCTION     0.06     0.82  4750.32     0  04:08        0.81
  7_1                  JUNCTION     0.10     2.98  4746.08     0  04:14        2.98
  8_0                  JUNCTION     0.14     1.61  4647.56     0  04:16        1.61
  8_1                  JUNCTION     0.11     1.42  4644.56     0  04:10        1.41
  8_1A                 JUNCTION     0.11     1.41  4639.54     0  04:10        1.41
  8_1B                 JUNCTION     0.12     1.50  4628.42     0  04:13        1.50
  8_1C                 JUNCTION     0.13     1.67  4616.55     0  04:14        1.67
  8_1D                 JUNCTION     0.13     2.27  4612.85     0  04:18        2.26
  8_2                  JUNCTION     0.71     3.05  4610.53     0  04:17        3.02
  8_2A                 JUNCTION     0.71     3.73  4610.99     0  04:15        2.98
  8_2B                 JUNCTION     0.72     4.00  4610.90     0  04:15        3.03
  8_3                  JUNCTION     0.71     7.14  4611.67     0  04:15        6.33
  8_3A                 JUNCTION     0.73     5.40  4608.75     0  04:14        5.34
  8_3B                 JUNCTION     0.74     5.36  4608.62     0  04:14        5.26
  8_3C                 JUNCTION     0.82     5.40  4608.10     0  04:13        5.16
  8_4                  JUNCTION     0.92     4.98  4607.54     0  04:15        4.96
  8_4A                 JUNCTION     2.39     6.01  4607.03     0  04:14        5.98
[...]
  4-1A                        0.01      0.51      0.01      0.51         0.01
  4-2A                        0.01      0.43      0.01      0.31         0.01
  4-2C                        0.01      0.01      0.19      0.01         0.01
  4-2D                        0.01      0.19      0.01      0.01         0.01
  4-3D                        0.01      0.01      0.81      0.01         0.01
  4-4A                        0.79      0.80      0.85      0.64         0.61
  4-4B                        0.63      0.89      0.63      0.98         0.63
  4-4C                        0.52      0.69      0.52      0.90         0.52
  4-4D                        0.35      0.62      0.35      0.77         0.35
  4-4E                        0.35      0.35      0.57      0.01         0.01
  4-5                         0.57      0.57      0.67      0.01         0.01
  4-5A                        0.67      0.67      0.69      0.41         0.44
  4-5B                        0.55      0.69      0.55      0.72         0.55
  4-5C                        0.55      0.55      0.69      0.01         0.01
  4-5D                        0.01      0.69      0.01      0.37         0.01
  4-5F                        0.01      0.01      0.01      0.42         0.01
  5-1A                        0.01      0.01      0.96      0.01         0.01
  5-2                         0.01      0.96      0.01      1.13         0.01
  6-2A                        0.01      0.01      0.60      0.01         0.01
  6-2B                        0.60      0.60      0.90      0.05         0.02
  7-0B                        0.01      0.01      0.11      0.01         0.01
  7-1                         0.01      0.11      0.01      0.18         0.01
  8-1C                        0.01      0.01      0.03      0.01         0.01
  8-1D                        0.03      0.03      0.38      0.01         0.01
  8-2                         0.01      0.01      0.01      0.14         0.01
  8-2A                        0.01      0.01      0.02      0.12         0.01
  8-2B                        0.02      0.02      0.02      0.12         0.01
  8-3                         0.15      0.15      0.22      0.06         0.05
  8-3A                        0.22      0.22      0.24      0.10         0.10
  8-3B                        0.23      0.24      0.30      0.10         0.09
  8-3C                        0.30      0.30      0.33      0.03         0.08
  8-4                         0.33      0.33      2.56      0.01         0.01
  8-4A                        2.55      2.56      3.97      0.01         0.05
  8-4B                        0.12      0.12      3.97      0.01         0.01
  8-4C                        0.01      0.37      0.01      0.15         0.01
  8-5                         0.01      0.01      0.33      0.01         0.01
  8-5A                        0.01      0.01      0.56      0.01         0.01
  8-6A                        0.01      0.01      0.01      0.19         0.01
  9-5                         0.01      0.01      0.01      0.01         0.01
  9-6                         0.01      0.01      3.20      0.01         0.01
  CDT-113                     0.01      0.01      0.31      0.01         0.01
  CDT-115                     0.46      0.46      0.89      0.01         0.01
  CDT-117                     0.46      0.46      0.89      0.01         0.01
  CDT-119                     0.45      0.45      0.89      0.01         0.01
  CDT-121                     0.45      0.45      0.89      0.01         0.01
  CDT-133                     8.24      8.25      9.71      0.01         0.01
  CDT-135                     7.91      7.92      8.37      0.01         0.01
  CDT-139                     0.04      0.04     23.70      0.01         0.01
  CDT-143                     0.01      0.01      2.63      0.01         0.01
  CDT-145                     0.01      0.06      0.02      0.01         0.01
  CDT-147                     0.01      0.06      0.02      0.01         0.01
  CDT-151                     5.79      5.79      6.09      0.01         0.01
  CDT-153                     5.79      5.79      6.09      0.01         0.01
  CDT-165                     1.63      1.64      2.18      0.01         0.01
  CDT-167                     6.67      6.67      6.87      0.01         0.01
  CDT-169                     6.66      6.66      6.87      0.01         0.01
  CDT-171                     1.63      1.64      2.18      0.01         0.01
  CDT-173                     1.62      1.64      2.18      0.01         0.01
  CDT-175                     1.63      1.66      2.18      0.01         0.02
  CDT-177                     1.63      1.64      2.18      0.01         0.01
  CDT-179                     6.67      6.67      6.87      0.01         0.01
  CDT-181                     6.67      6.67      6.87      0.01         0.01
  CDT-183                     1.63      1.64      2.18      0.01         0.01
  CDT-185                     1.63      1.64      2.18      0.01         0.01
  CDT-187                     6.65      6.65      7.32      0.01         0.01
  CDT-189                     6.65      6.65      7.32      0.01         0.01
  CDT-191                     6.65      6.65      7.32      0.01         0.01
  CDT-209                     0.25      0.25      0.94      0.01         0.01
  CDT-211                     0.25      0.25      0.94      0.01         0.01
  CDT-213                     0.25      0.25      0.94      0.01         0.01
  CDT-215                     0.25      0.25      0.94      0.01         0.01
  CDT-217                     0.25      0.25      0.94      0.01         0.01
  CDT-227                     7.37      7.37      8.73      0.01         0.01
  CDT-233                     0.01      0.01     21.26      0.01         0.01
  CDT-237                     5.79      5.79      6.09      0.01         0.01
  CDT-239                     5.79      5.79      6.09      0.01         0.01
  CDT-241                     5.79      5.79      6.09      0.01         0.01
  CDT-243                     0.03      0.05      0.12      0.01         0.01
  CDT-245                     0.03      0.06      0.12      0.01         0.01
  CDT-247                     0.29      0.30      0.32      0.01         0.01
  CDT-25                      0.01      0.01      0.31      0.01         0.01
  CDT-251                     0.01      0.01      0.01      0.63         0.01
  CDT-257                     0.01      0.01      1.24      0.56         0.01
  CDT-265                     0.20      0.20      0.75      0.01         0.01
  CDT-269                    10.52     10.52     10.92      0.01         0.01
  CDT-27                      0.19      0.19      0.43      0.07         0.01
  CDT-277                     0.01      0.01      0.10      0.01         0.01
  CDT-279                     0.01      1.85      0.01     11.80         0.01
  CDT-293                    12.42     14.23     12.42     14.59        12.42
  CDT-297                     0.01      0.01      0.79      0.01         0.01
  CDT-299                     0.79      0.79      2.19      0.01         0.01
  CDT-319                     0.01      0.01      1.61      0.01         0.01
  CDT-321                     0.67      0.67      0.81      0.02         0.02
  CDT-33                      0.79      0.79      1.24      0.01         0.01
  CDT-335                     0.01      0.01      0.01      0.62         0.01
  CDT-345                    10.22     10.22     23.55      0.01         0.01
  CDT-347                     0.28      0.28      4.39      0.01         0.01
  CDT-349                     0.43      4.25      0.43      4.39         0.43
  CDT-35                      1.24      1.24      1.31      1.10         1.09
  CDT-353                     2.06      2.06      2.58      1.38         1.37
  CDT-355                    10.18     10.18     10.85      0.01         9.81
  CDT-37                      0.01      1.15      0.01      0.01         0.01
  CDT-39                      0.14      0.19      0.14      0.45         0.11
  CDT-393                     0.01      1.83      0.01      1.75         0.01
  CDT-397                     0.01     23.82      0.01      5.51         0.01
  CDT-399                     0.01      0.01      3.18      0.01         0.01
  CDT-401                     1.38      5.85      1.38      6.53         1.38
  CDT-405                     0.43      0.43      0.93      0.03         0.01
  CDT-407                     0.93      0.93      0.98      0.12         0.10
  CDT-409                     0.68      0.98      0.68      0.98         0.68
  CDT-41                      0.07      0.14      0.07      0.46         0.06
  CDT-411                     0.65      0.68      0.79      0.70         0.60
  CDT-413                     0.01      0.01      0.57      0.01         0.01
  CDT-415                     0.01      0.01      0.42      0.01         0.01
  CDT-417                     0.42      0.42      0.89      0.01         0.01
  CDT-419                     0.01      0.01      0.88      1.20         0.01
  CDT-421                     4.29      8.80      4.29      8.91         4.29
  CDT-423                     4.38     23.87      4.38     23.82         4.38
  CDT-425                     0.92      0.95      1.33      0.65         0.62
  CDT-43                      0.02      0.07      0.02      0.43         0.01
  CDT-441                     0.01      1.32      0.01      1.28         0.01
  CDT-443                     0.57      0.57      0.85      0.63         0.55
  CDT-445                     0.01      0.91      0.01      0.04         0.01
  CDT-447                     0.01      0.01      1.13      0.01         0.01
  CDT-449                     0.01      0.01      0.12      0.01         0.01
  CDT-45                      0.02      0.02      0.06      0.02         0.01
  CDT-453                     0.01     11.68      0.01      0.01         0.01
  CDT-455                     0.01      4.90      0.01      4.86         0.01
  CDT-459                     2.28      2.28      3.48      0.01         0.01
  CDT-461                     1.96      1.96      2.28      0.01         0.01
  CDT-463                     2.66      2.66      2.88      0.01         0.01
  CDT-465                    23.85     23.85     23.86      4.44         4.44
  CDT-467                     0.01      0.01      3.88      0.01         0.01
  CDT-47                      4.20      4.20      4.35      2.30         2.29
  CDT-473                     0.01      0.01      1.00      0.01         0.01
  CDT-477                     0.01      0.01      0.01      1.41         0.01
  CDT-49                      0.32      0.32      0.34      0.16         0.19
  CDT-499                     0.24      0.24      0.37      0.24         0.19
  CDT-505                     0.01      0.07      0.01      0.41         0.01
  CDT-507                     0.01      0.01      0.01      0.06         0.01
  CDT-509                     1.32      1.32      4.15      0.01         0.01
  CDT-51                      0.24      0.26      0.32      0.17         0.19
  CDT-511                     0.01      0.01      0.79      0.01         0.01
  CDT-513                     0.63      0.73      0.66      0.70         0.27
  CDT-515                     0.01      0.01      1.32      0.01         0.01
  CDT-519                     1.78      1.78      9.02      0.09         0.09
  CDT-521                     0.01      0.01      1.78      0.01         0.01
  CDT-523                     0.82      0.82      1.16      0.51         0.16
  CDT-53                      0.22      0.22      0.26      0.16         0.18
  CDT-533                     7.60      8.57      7.72     12.91         6.93
  CDT-581                     0.01      0.01      0.27      0.01         0.01
  CDT-591                     0.01      6.08      0.01      2.12         0.01
  FLOW_IN_PHEASANT_BROOK        0.01      0.01      9.24      0.01         0.01
  L1-11A                      0.01      0.01      0.02      0.01         0.01
  L1-11B                      0.02      0.02      7.63      0.01         0.01
  L1-11C                      9.31      9.31     23.71      0.01         0.01
  L1-11D                      0.22     11.82      0.22     12.68         0.22
  L1-12                       0.01      0.01      0.90      0.01         0.01
  L1-13                       0.01      0.01      0.01      0.71         0.01
  L1-14A                      0.01      0.01      3.34      0.01         0.01
  L1-15B                      5.48      5.90      5.48      8.76         5.48
  L1-15C                      0.01      0.01      0.01      4.95         0.01
  L1-1A                       0.01      0.01      2.87      0.01         0.01
  L1-8                        0.01      0.01      0.01      0.60         0.01
  L1-9                        0.01      0.01      0.01      0.10         0.01
  L10-1A                      0.01      0.02      0.37      0.01         0.01
  L10-2                       0.01      0.01     23.00      0.01         0.01
  L10-2D                      0.01      0.01      3.29      0.01         0.01
  L10-3                       3.29      3.29     22.27      0.01         0.01
  L10-3A                     22.95     22.97     22.95     23.89        22.95
  L10-3B                     22.77     23.87     22.77     23.84        22.77
  L10-4                       0.01      0.01      0.49      0.01         0.01
  L10-5                       0.49      0.49      5.92      0.14         0.13
  L12-15                      1.25      1.25      1.92      0.01         0.01
  L12-20                      2.38      3.39      2.38      9.79         2.38
  L12-21                      0.01      0.01      0.05      0.01         0.01
  L12-22                      0.05      0.05      0.18      0.01         0.01
  L13-0                       0.49      0.49      9.65      0.40         0.38
  L13-1                       3.48      4.24      5.54      0.96         0.01
  L14-0                       1.96      1.96      2.06      0.01         0.01
  L14-1                       0.01      2.58      0.01      3.06         0.01
  L14-2                       0.01      0.01      2.25      0.01         0.01
  L14-3                       4.12      4.12      6.08      0.01         0.01
  L14-4                       3.68      3.68      3.83      0.01         0.01
  L14-5                       3.83      3.83      4.20      0.01         0.01
  L15-0                       0.47      1.45      0.47      2.05         0.47
  L15-1                       0.01      0.47      0.01      0.29         0.01
  L15-3                       0.01      0.01      2.12      0.01         0.01
  L15-4                       0.01      2.12      0.01      5.29         0.01
  L15-5                       0.01      0.01      0.01      1.02         0.01
  L16-2                       0.01      0.01      0.18      0.01         0.01
  L16-3                       0.18      0.18      0.36      0.01         0.01
  L18-0                       0.01      0.01     14.14      0.01         0.01
  L19-0                       1.96      2.19      1.97      4.43         1.93
  L19-1                       1.10      1.97      1.10      4.54         1.10
  L19-2                       0.01      1.10      0.01      4.52         0.01
  L2-0                        0.01      0.01      0.14      0.01         0.01
  L2-0M                       0.01      0.01      0.26      0.01         0.01
  L2-0N                       0.08      0.08      0.14      0.01         0.01
  L2-1                        0.01      0.14      0.01      0.54         0.01
  L20-0                       0.01      0.01      1.74      0.01         0.01
  L21-0                       0.01      0.15      0.09      0.18         0.01
  L22-0                       0.44      0.44      0.75      0.01         0.01
  L22-1                       0.23      0.24      0.23      0.48         0.22
  L22-2                       0.20      0.23      0.20      1.05         0.20
  L22-3                       0.65      0.68      0.65      0.83         0.65
  L22-4                       0.65      0.65      5.57      0.01         0.01
  L22-5                       0.76      0.76      0.83      0.01         0.01
  L23-3                       0.01      0.01      5.57      0.01         0.01
  L24-1                       0.52      0.58      0.59      2.93         0.28
  L24-4                       0.01      0.01      0.75      0.01         0.01
  L25-3                       0.01      0.01      0.30      0.01         0.01
  L25-4                       0.01      0.01      0.45      0.01         0.01
  L25-5                       0.17      0.45      0.17      0.77         0.17
  L3-0                        1.02      1.02      1.08      0.01         0.01
  L3-1                        0.97      1.08      0.97      1.09         0.97
  L3-1A                       0.24      0.97      0.24      1.08         0.24
  L3-5                        0.01      0.01      0.01      0.05         0.01
  L4-1                        0.01      0.01      0.01      0.36         0.01
  L4-2                        0.01      0.01      0.11      0.01         0.01
  L4-3                        0.01      0.11      0.01      0.19         0.01
  L5-0                        0.28      1.00      0.28      1.01         0.28
  L5-0A                       0.01      0.29      0.01      0.30         0.01
  L5-0B                       0.01      0.28      0.01      0.01         0.01
  L6-0                        0.01      0.30      0.01      0.31         0.01
  L6-2                        0.01      0.01      0.01      0.01         0.01
  L6-2B                       0.05      0.06      0.11      0.01         0.01
  L8-0                        0.01      0.09      0.01      0.16         0.01
  L8-1                        0.01      0.01      0.24      0.01         0.01
  L8-2                        0.29      0.29      0.38      0.01         0.01
  L8-2A                       0.31      0.31      0.43      0.01         0.01
  L8-3                        0.31      0.36      0.52      0.42         0.31
  L8-3A                       0.52      0.52      6.31      0.40         0.31
  L9-0                        0.43      0.43      0.43      0.19         0.17
  L9-1                        0.42      0.42      0.46      0.01         0.01
  L9-2                        0.43      0.43      0.47      0.43         0.43
  L9-2A                       0.46      0.47      0.49      0.47         0.45
  L9-2B                       0.01      0.49      0.01      0.52         0.01
  L9-3                        0.01      0.01      0.04      0.01         0.01
  L9-4                        0.01      0.04      0.01      0.01         0.01
  L9-5                        0.01      0.01      1.96      0.01         0.01
  OVERLAND_1                  0.01      0.42      0.01      0.13         0.01
  OVERLAND_10                 0.01      0.01     23.46      0.01         0.01
  OVERLAND_100                0.01      4.23      0.01      4.19         0.01
  OVERLAND_11                 0.01      0.45      0.01      0.01         0.01
  OVERLAND_16                 0.01      0.54      0.01      0.01         0.01
  OVERLAND_2                  0.19      0.29      0.24      0.18         0.14
  OVERLAND_2A                 0.01      0.24      0.01      0.01         0.01
  OVERLAND_3                  0.01      0.18      0.01      0.01         0.01
  OVERLAND_3C                 0.01      0.18      0.01      0.01         0.01
  OVERLAND_53                 0.01      0.27      0.01      0.01         0.01
  OVERLAND_7                  0.01      0.24      0.01      0.24         0.01
  OVERLAND_71                 0.01      0.01     23.46      0.01         0.01
  OVERLAND_72                 0.01      0.45      0.01      0.01         0.01
  

  Analysis begun on:  Fri Nov 29 09:56:39 2019
  Analysis ended on:  Fri Nov 29 09:56:48 2019
  Total elapsed time: 00:00:09