
  EPA STORM WATER MANAGEMENT MODEL - VERSION 5.1 (Build 5.1.013)
  --------------------------------------------------------------

  WARNING 01: wet weather time step reduced to recording interval for Rain Gage RAINGAGE-1
  WARNING 04: minimum elevation drop used for Conduit CDT-427
  WARNING 04: minimum elevation drop used for Conduit CDT-477
  WARNING 04: minimum elevation drop used for Conduit CDT-533
  WARNING 04: minimum elevation drop used for Conduit CDT-57
  WARNING 04: minimum elevation drop used for Conduit CDT-59
  WARNING 04: minimum elevation drop used for Conduit CDT-61
  WARNING 04: minimum elevation drop used for Conduit CDT-63
  WARNING 04: minimum elevation drop used for Conduit CDT-65
  WARNING 04: minimum elevation drop used for Conduit CDT-67
  WARNING 04: minimum elevation drop used for Conduit CDT-71
  WARNING 04: minimum elevation drop used for Conduit CDT-73
  WARNING 04: minimum elevation drop used for Conduit CDT-75
  WARNING 04: minimum elevation drop used for Conduit CDT-77
  WARNING 04: minimum elevation drop used for Conduit CDT-79
  WARNING 04: minimum elevation drop used for Conduit CDT-81
  WARNING 04: minimum elevation drop used for Conduit L10-3A
  WARNING 04: minimum elevation drop used for Conduit OVERLAND_23
  WARNING 02: maximum depth increased for Node 11_1
  WARNING 02: maximum depth increased for Node 1_0C
  WARNING 02: maximum depth increased for Node 1_22B
  WARNING 02: maximum depth increased for Node 1_23
  WARNING 02: maximum depth increased for Node 1_29
  WARNING 02: maximum depth increased for Node JCT-1784
  WARNING 02: maximum depth increased for Node JCT-2054
  WARNING 02: maximum depth increased for Node JCT-2056
  WARNING 02: maximum depth increased for Node JCT-2066
  WARNING 02: maximum depth increased for Node JCT-2068
  WARNING 02: maximum depth increased for Node L11_11
  WARNING 02: maximum depth increased for Node L11_6
  WARNING 02: maximum depth increased for Node L12_20A
  WARNING 02: maximum depth increased for Node L12_20C
  WARNING 02: maximum depth increased for Node L12_20D
  WARNING 02: maximum depth increased for Node L12_20E
  WARNING 02: maximum depth increased for Node L1_12
  WARNING 02: maximum depth increased for Node L1_15
  WARNING 02: maximum depth increased for Node L1_15B
  WARNING 02: maximum depth increased for Node L22_6
  WARNING 02: maximum depth increased for Node L3_3A
  
  *********************************************************
  NOTE: The summary statistics displayed in this report are
  based on results found at every computational time step,  
  not just on results from each reporting time step.
  *********************************************************
  
  ****************
  Analysis Options
  ****************
  Flow Units ............... GPM
  Process Models:
    Rainfall/Runoff ........ YES
    RDII ................... NO
    Snowmelt ............... NO
    Groundwater ............ NO
    Flow Routing ........... YES
    Ponding Allowed ........ YES
    Water Quality .......... NO
  Infiltration Method ...... CURVE_NUMBER
  Flow Routing Method ...... DYNWAVE
  Surcharge Method ......... EXTRAN
  Starting Date ............ 04/30/2015 20:00:00
  Ending Date .............. 05/02/2015 00:00:00
  Antecedent Dry Days ...... 5.0
  Report Time Step ......... 00:01:00
  Wet Time Step ............ 00:01:00
  Dry Time Step ............ 00:02:00
  Routing Time Step ........ 30.00 sec
  Variable Time Step ....... YES
  Maximum Trials ........... 6
  Number of Threads ........ 1
  Head Tolerance ........... 0.000100 ft
  
  
  **************************        Volume         Depth
  Runoff Quantity Continuity     acre-feet        inches
  **************************     ---------       -------
  Total Precipitation ......         0.000         0.000
  Evaporation Loss .........         0.000         0.000
  Infiltration Loss ........         0.000         0.000
  Surface Runoff ...........         0.000         0.000
  Final Storage ............         0.000         0.000
  Continuity Error (%) .....         0.000
  
  
  **************************        Volume        Volume
  Flow Routing Continuity        acre-feet      10^6 gal
  **************************     ---------     ---------
  Dry Weather Inflow .......         0.000         0.000
  Wet Weather Inflow .......         0.000         0.000
  Groundwater Inflow .......         0.000         0.000
  RDII Inflow ..............         0.000         0.000
  External Inflow ..........         0.000         0.000
  External Outflow .........         0.000         0.000
  Flooding Loss ............         0.000         0.000
  Evaporation Loss .........         0.000         0.000
  Exfiltration Loss ........         0.000         0.000
  Initial Stored Volume ....         0.002         0.001
  Final Stored Volume ......         0.002         0.001
  Continuity Error (%) .....         0.000
  
  
  ***************************
  Time-Step Critical Elements
  ***************************
  None
  
  
  ********************************
  Highest Flow Instability Indexes
  ********************************
  All links are stable.
  
  
  ***************************
  Subcatchment Runoff Summary
  ***************************
  
  ------------------------------------------------------------------------------------------------------------------------------
                            Total      Total      Total      Total     Imperv       Perv      Total       Total     Peak  Runoff
                           Precip      Runon       Evap      Infil     Runoff     Runoff     Runoff      Runoff   Runoff   Coeff
  Subcatchment                 in         in         in         in         in         in         in    10^6 gal      GPM
  ------------------------------------------------------------------------------------------------------------------------------
  P_SUB-10_0A                0.00       0.00       0.00       0.00       0.00       0.00       0.00        0.00     0.00   0.000
  P_SUB-10_0X                0.00       0.00       0.00       0.00       0.00       0.00       0.00        0.00     0.00   0.000
  P_SUB-10_0Y                0.00       0.00       0.00       0.00       0.00       0.00       0.00        0.00     0.00   0.000
  P_SUB-10_1A                0.00       0.00       0.00       0.00       0.00       0.00       0.00        0.00     0.00   0.000
  P_SUB-10_3                 0.00       0.00       0.00       0.00       0.00       0.00       0.00        0.00     0.00   0.000
  P_SUB-11_0X                0.00       0.00       0.00       0.00       0.00       0.00       0.00        0.00     0.00   0.000
  P_SUB-11_0Y                0.00       0.00       0.00       0.00       0.00       0.00       0.00        0.00     0.00   0.000
  P_SUB-11_1                 0.00       0.00       0.00       0.00       0.00       0.00       0.00        0.00     0.00   0.000
  P_SUB-11_2                 0.00       0.00       0.00       0.00       0.00       0.00       0.00        0.00     0.00   0.000
  P_SUB-12_0                 0.00       0.00       0.00       0.00       0.00       0.00       0.00        0.00     0.00   0.000
  P_SUB-12_1                 0.00       0.00       0.00       0.00       0.00       0.00       0.00        0.00     0.00   0.000
  P_SUB-12_2                 0.00       0.00       0.00       0.00       0.00       0.00       0.00        0.00     0.00   0.000
  P_SUB-12_3                 0.00       0.00       0.00       0.00       0.00       0.00       0.00        0.00     0.00   0.000
  P_SUB-12_4                 0.00       0.00       0.00       0.00       0.00       0.00       0.00        0.00     0.00   0.000
  P_SUB-13_0                 0.00       0.00       0.00       0.00       0.00       0.00       0.00        0.00     0.00   0.000
  P_SUB-15_0X                0.00       0.00       0.00       0.00       0.00       0.00       0.00        0.00     0.00   0.000
  P_SUB-15_0Y                0.00       0.00       0.00       0.00       0.00       0.00       0.00        0.00     0.00   0.000
  P_SUB-15_1                 0.00       0.00       0.00       0.00       0.00       0.00       0.00        0.00     0.00   0.000
  P_SUB-15_2                 0.00       0.00       0.00       0.00       0.00       0.00       0.00        0.00     0.00   0.000
  P_SUB-16_0                 0.00       0.00       0.00       0.00       0.00       0.00       0.00        0.00     0.00   0.000
  P_SUB-17_0                 0.00       0.00       0.00       0.00       0.00       0.00       0.00        0.00     0.00   0.000
  P_SUB-1_0BX                0.00       0.00       0.00       0.00       0.00       0.00       0.00        0.00     0.00   0.000
  P_SUB-1_0BY                0.00       0.00       0.00       0.00       0.00       0.00       0.00        0.00     0.00   0.000
  P_SUB-1_0X                 0.00       0.00       0.00       0.00       0.00       0.00       0.00        0.00     0.00   0.000
  P_SUB-1_0Y                 0.00       0.00       0.00       0.00       0.00       0.00       0.00        0.00     0.00   0.000
  P_SUB-1_0Z                 0.00       0.00       0.00       0.00       0.00       0.00       0.00        0.00     0.00   0.000
  P_SUB-1_10                 0.00       0.00       0.00       0.00       0.00       0.00       0.00        0.00     0.00   0.000
  P_SUB-1_12                 0.00       0.00       0.00       0.00       0.00       0.00       0.00        0.00     0.00   0.000
  P_SUB-1_14A                0.00       0.00       0.00       0.00       0.00       0.00       0.00        0.00     0.00   0.000
  P_SUB-1_15X                0.00       0.00       0.00       0.00       0.00       0.00       0.00        0.00     0.00   0.000
  P_SUB-1_15Y                0.00       0.00       0.00       0.00       0.00       0.00       0.00        0.00     0.00   0.000
  P_SUB-1_16                 0.00       0.00       0.00       0.00       0.00       0.00       0.00        0.00     0.00   0.000
  P_SUB-1_17                 0.00       0.00       0.00       0.00       0.00       0.00       0.00        0.00     0.00   0.000
  P_SUB-1_20                 0.00       0.00       0.00       0.00       0.00       0.00       0.00        0.00     0.00   0.000
  P_SUB-1_20B                0.00       0.00       0.00       0.00       0.00       0.00       0.00        0.00     0.00   0.000
  P_SUB-1_21                 0.00       0.00       0.00       0.00       0.00       0.00       0.00        0.00     0.00   0.000
  P_SUB-1_22A                0.00       0.00       0.00       0.00       0.00       0.00       0.00        0.00     0.00   0.000
  P_SUB-1_23                 0.00       0.00       0.00       0.00       0.00       0.00       0.00        0.00     0.00   0.000
  P_SUB-1_24                 0.00       0.00       0.00       0.00       0.00       0.00       0.00        0.00     0.00   0.000
  P_SUB-1_25X                0.00       0.00       0.00       0.00       0.00       0.00       0.00        0.00     0.00   0.000
  P_SUB-1_25Y                0.00       0.00       0.00       0.00       0.00       0.00       0.00        0.00     0.00   0.000
  P_SUB-1_26                 0.00       0.00       0.00       0.00       0.00       0.00       0.00        0.00     0.00   0.000
  P_SUB-1_28                 0.00       0.00       0.00       0.00       0.00       0.00       0.00        0.00     0.00   0.000
  P_SUB-1_29                 0.00       0.00       0.00       0.00       0.00       0.00       0.00        0.00     0.00   0.000
  P_SUB-1_31                 0.00       0.00       0.00       0.00       0.00       0.00       0.00        0.00     0.00   0.000
  P_SUB-1_4X                 0.00       0.00       0.00       0.00       0.00       0.00       0.00        0.00     0.00   0.000
  P_SUB-1_4Y                 0.00       0.00       0.00       0.00       0.00       0.00       0.00        0.00     0.00   0.000
  P_SUB-1_5                  0.00       0.00       0.00       0.00       0.00       0.00       0.00        0.00     0.00   0.000
  P_SUB-1_6                  0.00       0.00       0.00       0.00       0.00       0.00       0.00        0.00     0.00   0.000
  P_SUB-1_7                  0.00       0.00       0.00       0.00       0.00       0.00       0.00        0.00     0.00   0.000
  P_SUB-1_8                  0.00       0.00       0.00       0.00       0.00       0.00       0.00        0.00     0.00   0.000
  P_SUB-1_9                  0.00       0.00       0.00       0.00       0.00       0.00       0.00        0.00     0.00   0.000
  P_SUB-200S_0               0.00       0.00       0.00       0.00       0.00       0.00       0.00        0.00     0.00   0.000
  P_SUB-200S_1               0.00       0.00       0.00       0.00       0.00       0.00       0.00        0.00     0.00   0.000
  P_SUB-200S_10              0.00       0.00       0.00       0.00       0.00       0.00       0.00        0.00     0.00   0.000
  P_SUB-200S_11P             0.00       0.00       0.00       0.00       0.00       0.00       0.00        0.00     0.00   0.000
  P_SUB-200S_2               0.00       0.00       0.00       0.00       0.00       0.00       0.00        0.00     0.00   0.000
  P_SUB-200S_3               0.00       0.00       0.00       0.00       0.00       0.00       0.00        0.00     0.00   0.000
  P_SUB-200S_4               0.00       0.00       0.00       0.00       0.00       0.00       0.00        0.00     0.00   0.000
  P_SUB-200S_5               0.00       0.00       0.00       0.00       0.00       0.00       0.00        0.00     0.00   0.000
  P_SUB-200S_6               0.00       0.00       0.00       0.00       0.00       0.00       0.00        0.00     0.00   0.000
  P_SUB-200S_7               0.00       0.00       0.00       0.00       0.00       0.00       0.00        0.00     0.00   0.000
  P_SUB-200S_8               0.00       0.00       0.00       0.00       0.00       0.00       0.00        0.00     0.00   0.000
  P_SUB-200S_9               0.00       0.00       0.00       0.00       0.00       0.00       0.00        0.00     0.00   0.000
  P_SUB-28_01                0.00       0.00       0.00       0.00       0.00       0.00       0.00        0.00     0.00   0.000
  P_SUB-28_02                0.00       0.00       0.00       0.00       0.00       0.00       0.00        0.00     0.00   0.000
  P_SUB-28_03                0.00       0.00       0.00       0.00       0.00       0.00       0.00        0.00     0.00   0.000
  P_SUB-28_2                 0.00       0.00       0.00       0.00       0.00       0.00       0.00        0.00     0.00   0.000
  P_SUB-28_3                 0.00       0.00       0.00       0.00       0.00       0.00       0.00        0.00     0.00   0.000
  P_SUB-28_4X                0.00       0.00       0.00       0.00       0.00       0.00       0.00        0.00     0.00   0.000
  P_SUB-28_4Y                0.00       0.00       0.00       0.00       0.00       0.00       0.00        0.00     0.00   0.000
  P_SUB-28_5X                0.00       0.00       0.00       0.00       0.00       0.00       0.00        0.00     0.00   0.000
  P_SUB-28_5Y                0.00       0.00       0.00       0.00       0.00       0.00       0.00        0.00     0.00   0.000
  P_SUB-2_0                  0.00       0.00       0.00       0.00       0.00       0.00       0.00        0.00     0.00   0.000
  P_SUB-2_1                  0.00       0.00       0.00       0.00       0.00       0.00       0.00        0.00     0.00   0.000
  P_SUB-2_1A                 0.00       0.00       0.00       0.00       0.00       0.00       0.00        0.00     0.00   0.000
  P_SUB-2_3X                 0.00       0.00       0.00       0.00       0.00       0.00       0.00        0.00     0.00   0.000
  P_SUB-2_3Y                 0.00       0.00       0.00       0.00       0.00       0.00       0.00        0.00     0.00   0.000
  P_SUB-2_4                  0.00       0.00       0.00       0.00       0.00       0.00       0.00        0.00     0.00   0.000
  P_SUB-2_5                  0.00       0.00       0.00       0.00       0.00       0.00       0.00        0.00     0.00   0.000
  P_SUB-3_0                  0.00       0.00       0.00       0.00       0.00       0.00       0.00        0.00     0.00   0.000
  P_SUB-3_1                  0.00       0.00       0.00       0.00       0.00       0.00       0.00        0.00     0.00   0.000
  P_SUB-4_0                  0.00       0.00       0.00       0.00       0.00       0.00       0.00        0.00     0.00   0.000
  P_SUB-4_1                  0.00       0.00       0.00       0.00       0.00       0.00       0.00        0.00     0.00   0.000
  P_SUB-4_2                  0.00       0.00       0.00       0.00       0.00       0.00       0.00        0.00     0.00   0.000
  P_SUB-4_3                  0.00       0.00       0.00       0.00       0.00       0.00       0.00        0.00     0.00   0.000
  P_SUB-4_5                  0.00       0.00       0.00       0.00       0.00       0.00       0.00        0.00     0.00   0.000
  P_SUB-5_0                  0.00       0.00       0.00       0.00       0.00       0.00       0.00        0.00     0.00   0.000
  P_SUB-5_2                  0.00       0.00       0.00       0.00       0.00       0.00       0.00        0.00     0.00   0.000
  P_SUB-6_0                  0.00       0.00       0.00       0.00       0.00       0.00       0.00        0.00     0.00   0.000
  P_SUB-6_2                  0.00       0.00       0.00       0.00       0.00       0.00       0.00        0.00     0.00   0.000
  P_SUB-6_2B                 0.00       0.00       0.00       0.00       0.00       0.00       0.00        0.00     0.00   0.000
  P_SUB-7_0                  0.00       0.00       0.00       0.00       0.00       0.00       0.00        0.00     0.00   0.000
  P_SUB-7_1                  0.00       0.00       0.00       0.00       0.00       0.00       0.00        0.00     0.00   0.000
  P_SUB-8_0                  0.00       0.00       0.00       0.00       0.00       0.00       0.00        0.00     0.00   0.000
  P_SUB-8_1                  0.00       0.00       0.00       0.00       0.00       0.00       0.00        0.00     0.00   0.000
  P_SUB-8_4C                 0.00       0.00       0.00       0.00       0.00       0.00       0.00        0.00     0.00   0.000
  P_SUB-8_5                  0.00       0.00       0.00       0.00       0.00       0.00       0.00        0.00     0.00   0.000
  P_SUB-8_7                  0.00       0.00       0.00       0.00       0.00       0.00       0.00        0.00     0.00   0.000
  P_SUB-9_3                  0.00       0.00       0.00       0.00       0.00       0.00       0.00        0.00     0.00   0.000
  P_SUB-9_6                  0.00       0.00       0.00       0.00       0.00       0.00       0.00        0.00     0.00   0.000
  P_SUB-L10_0                0.00       0.00       0.00       0.00       0.00       0.00       0.00        0.00     0.00   0.000
  P_SUB-L10_0B               0.00       0.00       0.00       0.00       0.00       0.00       0.00        0.00     0.00   0.000
  P_SUB-L10_1                0.00       0.00       0.00       0.00       0.00       0.00       0.00        0.00     0.00   0.000
  P_SUB-L10_1A               0.00       0.00       0.00       0.00       0.00       0.00       0.00        0.00     0.00   0.000
  P_SUB-L10_2                0.00       0.00       0.00       0.00       0.00       0.00       0.00        0.00     0.00   0.000
  P_SUB-L10_2A               0.00       0.00       0.00       0.00       0.00       0.00       0.00        0.00     0.00   0.000
  P_SUB-L10_2B               0.00       0.00       0.00       0.00       0.00       0.00       0.00        0.00     0.00   0.000
  P_SUB-L10_2C               0.00       0.00       0.00       0.00       0.00       0.00       0.00        0.00     0.00   0.000
  P_SUB-L10_2D               0.00       0.00       0.00       0.00       0.00       0.00       0.00        0.00     0.00   0.000
  P_SUB-L10_3                0.00       0.00       0.00       0.00       0.00       0.00       0.00        0.00     0.00   0.000
  P_SUB-L10_3A               0.00       0.00       0.00       0.00       0.00       0.00       0.00        0.00     0.00   0.000
  P_SUB-L10_5                0.00       0.00       0.00       0.00       0.00       0.00       0.00        0.00     0.00   0.000
  P_SUB-L11_11               0.00       0.00       0.00       0.00       0.00       0.00       0.00        0.00     0.00   0.000
  P_SUB-L11_12               0.00       0.00       0.00       0.00       0.00       0.00       0.00        0.00     0.00   0.000
  P_SUB-L11_13               0.00       0.00       0.00       0.00       0.00       0.00       0.00        0.00     0.00   0.000
  P_SUB-L11_14               0.00       0.00       0.00       0.00       0.00       0.00       0.00        0.00     0.00   0.000
  P_SUB-L11_3                0.00       0.00       0.00       0.00       0.00       0.00       0.00        0.00     0.00   0.000
  P_SUB-L11_9                0.00       0.00       0.00       0.00       0.00       0.00       0.00        0.00     0.00   0.000
  P_SUB-L12_15               0.00       0.00       0.00       0.00       0.00       0.00       0.00        0.00     0.00   0.000
  P_SUB-L12_17               0.00       0.00       0.00       0.00       0.00       0.00       0.00        0.00     0.00   0.000
  P_SUB-L12_20               0.00       0.00       0.00       0.00       0.00       0.00       0.00        0.00     0.00   0.000
  P_SUB-L12_20C              0.00       0.00       0.00       0.00       0.00       0.00       0.00        0.00     0.00   0.000
  P_SUB-L12_21               0.00       0.00       0.00       0.00       0.00       0.00       0.00        0.00     0.00   0.000
  P_SUB-L12_6                0.00       0.00       0.00       0.00       0.00       0.00       0.00        0.00     0.00   0.000
  P_SUB-L13_0                0.00       0.00       0.00       0.00       0.00       0.00       0.00        0.00     0.00   0.000
  P_SUB-L13_1                0.00       0.00       0.00       0.00       0.00       0.00       0.00        0.00     0.00   0.000
  P_SUB-L14_0                0.00       0.00       0.00       0.00       0.00       0.00       0.00        0.00     0.00   0.000
  P_SUB-L14_1                0.00       0.00       0.00       0.00       0.00       0.00       0.00        0.00     0.00   0.000
  P_SUB-L14_2                0.00       0.00       0.00       0.00       0.00       0.00       0.00        0.00     0.00   0.000
  P_SUB-L15_3                0.00       0.00       0.00       0.00       0.00       0.00       0.00        0.00     0.00   0.000
  P_SUB-L15_4                0.00       0.00       0.00       0.00       0.00       0.00       0.00        0.00     0.00   0.000
  P_SUB-L15_5                0.00       0.00       0.00       0.00       0.00       0.00       0.00        0.00     0.00   0.000
  P_SUB-L16_1                0.00       0.00       0.00       0.00       0.00       0.00       0.00        0.00     0.00   0.000
  P_SUB-L17_0                0.00       0.00       0.00       0.00       0.00       0.00       0.00        0.00     0.00   0.000
  P_SUB-L18_0                0.00       0.00       0.00       0.00       0.00       0.00       0.00        0.00     0.00   0.000
  P_SUB-L19_0                0.00       0.00       0.00       0.00       0.00       0.00       0.00        0.00     0.00   0.000
  P_SUB-L19_1                0.00       0.00       0.00       0.00       0.00       0.00       0.00        0.00     0.00   0.000
  P_SUB-L1_0                 0.00       0.00       0.00       0.00       0.00       0.00       0.00        0.00     0.00   0.000
  P_SUB-L1_1                 0.00       0.00       0.00       0.00       0.00       0.00       0.00        0.00     0.00   0.000
  P_SUB-L1_11                0.00       0.00       0.00       0.00       0.00       0.00       0.00        0.00     0.00   0.000
  P_SUB-L1_11A               0.00       0.00       0.00       0.00       0.00       0.00       0.00        0.00     0.00   0.000
  P_SUB-L1_11B               0.00       0.00       0.00       0.00       0.00       0.00       0.00        0.00     0.00   0.000
  P_SUB-L1_13                0.00       0.00       0.00       0.00       0.00       0.00       0.00        0.00     0.00   0.000
  P_SUB-L1_14AX              0.00       0.00       0.00       0.00       0.00       0.00       0.00        0.00     0.00   0.000
  P_SUB-L1_14AY              0.00       0.00       0.00       0.00       0.00       0.00       0.00        0.00     0.00   0.000
  P_SUB-L1_15                0.00       0.00       0.00       0.00       0.00       0.00       0.00        0.00     0.00   0.000
  P_SUB-L1_15A               0.00       0.00       0.00       0.00       0.00       0.00       0.00        0.00     0.00   0.000
  P_SUB-L1_15B               0.00       0.00       0.00       0.00       0.00       0.00       0.00        0.00     0.00   0.000
  P_SUB-L1_18A               0.00       0.00       0.00       0.00       0.00       0.00       0.00        0.00     0.00   0.000
  P_SUB-L1_2                 0.00       0.00       0.00       0.00       0.00       0.00       0.00        0.00     0.00   0.000
  P_SUB-L1_4                 0.00       0.00       0.00       0.00       0.00       0.00       0.00        0.00     0.00   0.000
  P_SUB-L1_5                 0.00       0.00       0.00       0.00       0.00       0.00       0.00        0.00     0.00   0.000
  P_SUB-L1_6                 0.00       0.00       0.00       0.00       0.00       0.00       0.00        0.00     0.00   0.000
  P_SUB-L1_7                 0.00       0.00       0.00       0.00       0.00       0.00       0.00        0.00     0.00   0.000
  P_SUB-L1_8                 0.00       0.00       0.00       0.00       0.00       0.00       0.00        0.00     0.00   0.000
  P_SUB-L1_9                 0.00       0.00       0.00       0.00       0.00       0.00       0.00        0.00     0.00   0.000
  P_SUB-L1_9BV               0.00       0.00       0.00       0.00       0.00       0.00       0.00        0.00     0.00   0.000
  P_SUB-L1_9BX               0.00       0.00       0.00       0.00       0.00       0.00       0.00        0.00     0.00   0.000
  P_SUB-L1_9BY               0.00       0.00       0.00       0.00       0.00       0.00       0.00        0.00     0.00   0.000
  P_SUB-L1_9BZ               0.00       0.00       0.00       0.00       0.00       0.00       0.00        0.00     0.00   0.000
  P_SUB-L20_0                0.00       0.00       0.00       0.00       0.00       0.00       0.00        0.00     0.00   0.000
  P_SUB-L21_0                0.00       0.00       0.00       0.00       0.00       0.00       0.00        0.00     0.00   0.000
  P_SUB-L22_0                0.00       0.00       0.00       0.00       0.00       0.00       0.00        0.00     0.00   0.000
  P_SUB-L22_1                0.00       0.00       0.00       0.00       0.00       0.00       0.00        0.00     0.00   0.000
  P_SUB-L22_5                0.00       0.00       0.00       0.00       0.00       0.00       0.00        0.00     0.00   0.000
  P_SUB-L22_6                0.00       0.00       0.00       0.00       0.00       0.00       0.00        0.00     0.00   0.000
  P_SUB-L23_1                0.00       0.00       0.00       0.00       0.00       0.00       0.00        0.00     0.00   0.000
  P_SUB-L24_0                0.00       0.00       0.00       0.00       0.00       0.00       0.00        0.00     0.00   0.000
  P_SUB-L24_1                0.00       0.00       0.00       0.00       0.00       0.00       0.00        0.00     0.00   0.000
  P_SUB-L24_2                0.00       0.00       0.00       0.00       0.00       0.00       0.00        0.00     0.00   0.000
  P_SUB-L24_3                0.00       0.00       0.00       0.00       0.00       0.00       0.00        0.00     0.00   0.000
  P_SUB-L24_4                0.00       0.00       0.00       0.00       0.00       0.00       0.00        0.00     0.00   0.000
  P_SUB-L24_5                0.00       0.00       0.00       0.00       0.00       0.00       0.00        0.00     0.00   0.000
  P_SUB-L25_0                0.00       0.00       0.00       0.00       0.00       0.00       0.00        0.00     0.00   0.000
  P_SUB-L25_2                0.00       0.00       0.00       0.00       0.00       0.00       0.00        0.00     0.00   0.000
  P_SUB-L25_3                0.00       0.00       0.00       0.00       0.00       0.00       0.00        0.00     0.00   0.000
  P_SUB-L25_4                0.00       0.00       0.00       0.00       0.00       0.00       0.00        0.00     0.00   0.000
  P_SUB-L25_5                0.00       0.00       0.00       0.00       0.00       0.00       0.00        0.00     0.00   0.000
  P_SUB-L2_0                 0.00       0.00       0.00       0.00       0.00       0.00       0.00        0.00     0.00   0.000
  P_SUB-L2_0A                0.00       0.00       0.00       0.00       0.00       0.00       0.00        0.00     0.00   0.000
  P_SUB-L2_0B                0.00       0.00       0.00       0.00       0.00       0.00       0.00        0.00     0.00   0.000
  P_SUB-L2_0D                0.00       0.00       0.00       0.00       0.00       0.00       0.00        0.00     0.00   0.000
  P_SUB-L2_0H                0.00       0.00       0.00       0.00       0.00       0.00       0.00        0.00     0.00   0.000
  P_SUB-L2_0I                0.00       0.00       0.00       0.00       0.00       0.00       0.00        0.00     0.00   0.000
  P_SUB-L2_0J                0.00       0.00       0.00       0.00       0.00       0.00       0.00        0.00     0.00   0.000
  P_SUB-L2_0L                0.00       0.00       0.00       0.00       0.00       0.00       0.00        0.00     0.00   0.000
  P_SUB-L2_0M                0.00       0.00       0.00       0.00       0.00       0.00       0.00        0.00     0.00   0.000
  P_SUB-L2_0N                0.00       0.00       0.00       0.00       0.00       0.00       0.00        0.00     0.00   0.000
  P_SUB-L3_1                 0.00       0.00       0.00       0.00       0.00       0.00       0.00        0.00     0.00   0.000
  P_SUB-L3_2                 0.00       0.00       0.00       0.00       0.00       0.00       0.00        0.00     0.00   0.000
  P_SUB-L3_3                 0.00       0.00       0.00       0.00       0.00       0.00       0.00        0.00     0.00   0.000
  P_SUB-L3_5                 0.00       0.00       0.00       0.00       0.00       0.00       0.00        0.00     0.00   0.000
  P_SUB-L4_2                 0.00       0.00       0.00       0.00       0.00       0.00       0.00        0.00     0.00   0.000
  P_SUB-L4_3                 0.00       0.00       0.00       0.00       0.00       0.00       0.00        0.00     0.00   0.000
  P_SUB-L5_0                 0.00       0.00       0.00       0.00       0.00       0.00       0.00        0.00     0.00   0.000
  P_SUB-L5_0A                0.00       0.00       0.00       0.00       0.00       0.00       0.00        0.00     0.00   0.000
  P_SUB-L6_0                 0.00       0.00       0.00       0.00       0.00       0.00       0.00        0.00     0.00   0.000
  P_SUB-L6_1                 0.00       0.00       0.00       0.00       0.00       0.00       0.00        0.00     0.00   0.000
  P_SUB-L6_2                 0.00       0.00       0.00       0.00       0.00       0.00       0.00        0.00     0.00   0.000
  P_SUB-L7_0                 0.00       0.00       0.00       0.00       0.00       0.00       0.00        0.00     0.00   0.000
  P_SUB-L8_0                 0.00       0.00       0.00       0.00       0.00       0.00       0.00        0.00     0.00   0.000
  P_SUB-L8_1                 0.00       0.00       0.00       0.00       0.00       0.00       0.00        0.00     0.00   0.000
  P_SUB-L9_0                 0.00       0.00       0.00       0.00       0.00       0.00       0.00        0.00     0.00   0.000
  P_SUB-L9_1                 0.00       0.00       0.00       0.00       0.00       0.00       0.00        0.00     0.00   0.000
  P_SUB-L9_2A                0.00       0.00       0.00       0.00       0.00       0.00       0.00        0.00     0.00   0.000
  P_SUB-L9_2X                0.00       0.00       0.00       0.00       0.00       0.00       0.00        0.00     0.00   0.000
  P_SUB-L9_2Y                0.00       0.00       0.00       0.00       0.00       0.00       0.00        0.00     0.00   0.000
  P_SUB-L9_3                 0.00       0.00       0.00       0.00       0.00       0.00       0.00        0.00     0.00   0.000
  P_SUB-L9_4                 0.00       0.00       0.00       0.00       0.00       0.00       0.00        0.00     0.00   0.000
  P_SUB-NN1                  0.00       0.00       0.00       0.00       0.00       0.00       0.00        0.00     0.00   0.000
  P_SUB-NN2                  0.00       0.00       0.00       0.00       0.00       0.00       0.00        0.00     0.00   0.000
  P_SUB-NN3                  0.00       0.00       0.00       0.00       0.00       0.00       0.00        0.00     0.00   0.000
  P_SUB-NN4                  0.00       0.00       0.00       0.00       0.00       0.00       0.00        0.00     0.00   0.000
  P_SUB-NN5                  0.00       0.00       0.00       0.00       0.00       0.00       0.00        0.00     0.00   0.000
  P_SUB-NN6                  0.00       0.00       0.00       0.00       0.00       0.00       0.00        0.00     0.00   0.000
  P_SUB-UDOT_1               0.00       0.00       0.00       0.00       0.00       0.00       0.00        0.00     0.00   0.000
  SUB-10_0A                  0.00       0.00       0.00       0.00       0.00       0.00       0.00        0.00     0.00   0.000
  SUB-10_0X                  0.00       0.00       0.00       0.00       0.00       0.00       0.00        0.00     0.00   0.000
  SUB-10_0Y                  0.00       0.00       0.00       0.00       0.00       0.00       0.00        0.00     0.00   0.000
  SUB-10_1A                  0.00       0.00       0.00       0.00       0.00       0.00       0.00        0.00     0.00   0.000
  SUB-10_3                   0.00       0.00       0.00       0.00       0.00       0.00       0.00        0.00     0.00   0.000
  SUB-11_0X                  0.00       0.00       0.00       0.00       0.00       0.00       0.00        0.00     0.00   0.000
  SUB-11_0Y                  0.00       0.00       0.00       0.00       0.00       0.00       0.00        0.00     0.00   0.000
  SUB-11_1                   0.00       0.00       0.00       0.00       0.00       0.00       0.00        0.00     0.00   0.000
  SUB-11_2                   0.00       0.00       0.00       0.00       0.00       0.00       0.00        0.00     0.00   0.000
  SUB-12_0                   0.00       0.00       0.00       0.00       0.00       0.00       0.00        0.00     0.00   0.000
  SUB-12_1                   0.00       0.00       0.00       0.00       0.00       0.00       0.00        0.00     0.00   0.000
  SUB-12_2                   0.00       0.00       0.00       0.00       0.00       0.00       0.00        0.00     0.00   0.000
  SUB-12_3                   0.00       0.00       0.00       0.00       0.00       0.00       0.00        0.00     0.00   0.000
  SUB-12_4                   0.00       0.00       0.00       0.00       0.00       0.00       0.00        0.00     0.00   0.000
  SUB-13_0                   0.00       0.00       0.00       0.00       0.00       0.00       0.00        0.00     0.00   0.000
  SUB-15_0X                  0.00       0.00       0.00       0.00       0.00       0.00       0.00        0.00     0.00   0.000
  SUB-15_0Y                  0.00       0.00       0.00       0.00       0.00       0.00       0.00        0.00     0.00   0.000
  SUB-15_1                   0.00       0.00       0.00       0.00       0.00       0.00       0.00        0.00     0.00   0.000
  SUB-15_2                   0.00       0.00       0.00       0.00       0.00       0.00       0.00        0.00     0.00   0.000
  SUB-16_0                   0.00       0.00       0.00       0.00       0.00       0.00       0.00        0.00     0.00   0.000
  SUB-17_0                   0.00       0.00       0.00       0.00       0.00       0.00       0.00        0.00     0.00   0.000
  SUB-1_0BX                  0.00       0.00       0.00       0.00       0.00       0.00       0.00        0.00     0.00   0.000
  SUB-1_0BY                  0.00       0.00       0.00       0.00       0.00       0.00       0.00        0.00     0.00   0.000
  SUB-1_0X                   0.00       0.00       0.00       0.00       0.00       0.00       0.00        0.00     0.00   0.000
  SUB-1_0Y                   0.00       0.00       0.00       0.00       0.00       0.00       0.00        0.00     0.00   0.000
  SUB-1_0Z                   0.00       0.00       0.00       0.00       0.00       0.00       0.00        0.00     0.00   0.000
  SUB-1_10                   0.00       0.00       0.00       0.00       0.00       0.00       0.00        0.00     0.00   0.000
  SUB-1_12                   0.00       0.00       0.00       0.00       0.00       0.00       0.00        0.00     0.00   0.000
  SUB-1_14A                  0.00       0.00       0.00       0.00       0.00       0.00       0.00        0.00     0.00   0.000
  SUB-1_15X                  0.00       0.00       0.00       0.00       0.00       0.00       0.00        0.00     0.00   0.000
  SUB-1_15Y                  0.00       0.00       0.00       0.00       0.00       0.00       0.00        0.00     0.00   0.000
  SUB-1_16                   0.00       0.00       0.00       0.00       0.00       0.00       0.00        0.00     0.00   0.000
  SUB-1_17                   0.00       0.00       0.00       0.00       0.00       0.00       0.00        0.00     0.00   0.000
  SUB-1_20                   0.00       0.00       0.00       0.00       0.00       0.00       0.00        0.00     0.00   0.000
  SUB-1_20B                  0.00       0.00       0.00       0.00       0.00       0.00       0.00        0.00     0.00   0.000
  SUB-1_21                   0.00       0.00       0.00       0.00       0.00       0.00       0.00        0.00     0.00   0.000
  SUB-1_22A                  0.00       0.00       0.00       0.00       0.00       0.00       0.00        0.00     0.00   0.000
  SUB-1_23                   0.00       0.00       0.00       0.00       0.00       0.00       0.00        0.00     0.00   0.000
  SUB-1_24                   0.00       0.00       0.00       0.00       0.00       0.00       0.00        0.00     0.00   0.000
  SUB-1_25X                  0.00       0.00       0.00       0.00       0.00       0.00       0.00        0.00     0.00   0.000
  SUB-1_25Y                  0.00       0.00       0.00       0.00       0.00       0.00       0.00        0.00     0.00   0.000
  SUB-1_26                   0.00       0.00       0.00       0.00       0.00       0.00       0.00        0.00     0.00   0.000
  SUB-1_28                   0.00       0.00       0.00       0.00       0.00       0.00       0.00        0.00     0.00   0.000
  SUB-1_29                   0.00       0.00       0.00       0.00       0.00       0.00       0.00        0.00     0.00   0.000
  SUB-1_31                   0.00       0.00       0.00       0.00       0.00       0.00       0.00        0.00     0.00   0.000
  SUB-1_4X                   0.00       0.00       0.00       0.00       0.00       0.00       0.00        0.00     0.00   0.000
  SUB-1_4Y                   0.00       0.00       0.00       0.00       0.00       0.00       0.00        0.00     0.00   0.000
  SUB-1_5                    0.00       0.00       0.00       0.00       0.00       0.00       0.00        0.00     0.00   0.000
  SUB-1_6                    0.00       0.00       0.00       0.00       0.00       0.00       0.00        0.00     0.00   0.000
  SUB-1_7                    0.00       0.00       0.00       0.00       0.00       0.00       0.00        0.00     0.00   0.000
  SUB-1_8                    0.00       0.00       0.00       0.00       0.00       0.00       0.00        0.00     0.00   0.000
  SUB-1_9                    0.00       0.00       0.00       0.00       0.00       0.00       0.00        0.00     0.00   0.000
  SUB-200S_0                 0.00       0.00       0.00       0.00       0.00       0.00       0.00        0.00     0.00   0.000
  SUB-200S_1                 0.00       0.00       0.00       0.00       0.00       0.00       0.00        0.00     0.00   0.000
  SUB-200S_10                0.00       0.00       0.00       0.00       0.00       0.00       0.00        0.00     0.00   0.000
  SUB-200S_11P               0.00       0.00       0.00       0.00       0.00       0.00       0.00        0.00     0.00   0.000
  SUB-200S_2                 0.00       0.00       0.00       0.00       0.00       0.00       0.00        0.00     0.00   0.000
  SUB-200S_3                 0.00       0.00       0.00       0.00       0.00       0.00       0.00        0.00     0.00   0.000
  SUB-200S_4                 0.00       0.00       0.00       0.00       0.00       0.00       0.00        0.00     0.00   0.000
  SUB-200S_5                 0.00       0.00       0.00       0.00       0.00       0.00       0.00        0.00     0.00   0.000
  SUB-200S_6                 0.00       0.00       0.00       0.00       0.00       0.00       0.00        0.00     0.00   0.000
  SUB-200S_7                 0.00       0.00       0.00       0.00       0.00       0.00       0.00        0.00     0.00   0.000
  SUB-200S_8                 0.00       0.00       0.00       0.00       0.00       0.00       0.00        0.00     0.00   0.000
  SUB-200S_9                 0.00       0.00       0.00       0.00       0.00       0.00       0.00        0.00     0.00   0.000
  SUB-28_01                  0.00       0.00       0.00       0.00       0.00       0.00       0.00        0.00     0.00   0.000
  SUB-28_02                  0.00       0.00       0.00       0.00       0.00       0.00       0.00        0.00     0.00   0.000
  SUB-28_03                  0.00       0.00       0.00       0.00       0.00       0.00       0.00        0.00     0.00   0.000
  SUB-28_2                   0.00       0.00       0.00       0.00       0.00       0.00       0.00        0.00     0.00   0.000
  SUB-28_3                   0.00       0.00       0.00       0.00       0.00       0.00       0.00        0.00     0.00   0.000
  SUB-28_4X                  0.00       0.00       0.00       0.00       0.00       0.00       0.00        0.00     0.00   0.000
  SUB-28_4Y                  0.00       0.00       0.00       0.00       0.00       0.00       0.00        0.00     0.00   0.000
  SUB-28_5X                  0.00       0.00       0.00       0.00       0.00       0.00       0.00        0.00     0.00   0.000
  SUB-28_5Y                  0.00       0.00       0.00       0.00       0.00       0.00       0.00        0.00     0.00   0.000
  SUB-2_0                    0.00       0.00       0.00       0.00       0.00       0.00       0.00        0.00     0.00   0.000
  SUB-2_1                    0.00       0.00       0.00       0.00       0.00       0.00       0.00        0.00     0.00   0.000
  SUB-2_1A                   0.00       0.00       0.00       0.00       0.00       0.00       0.00        0.00     0.00   0.000
  SUB-2_3X                   0.00       0.00       0.00       0.00       0.00       0.00       0.00        0.00     0.00   0.000
  SUB-2_3Y                   0.00       0.00       0.00       0.00       0.00       0.00       0.00        0.00     0.00   0.000
  SUB-2_4                    0.00       0.00       0.00       0.00       0.00       0.00       0.00        0.00     0.00   0.000
  SUB-2_5                    0.00       0.00       0.00       0.00       0.00       0.00       0.00        0.00     0.00   0.000
  SUB-3_0                    0.00       0.00       0.00       0.00       0.00       0.00       0.00        0.00     0.00   0.000
  SUB-3_1                    0.00       0.00       0.00       0.00       0.00       0.00       0.00        0.00     0.00   0.000
  SUB-4_0                    0.00       0.00       0.00       0.00       0.00       0.00       0.00        0.00     0.00   0.000
  SUB-4_1                    0.00       0.00       0.00       0.00       0.00       0.00       0.00        0.00     0.00   0.000
  SUB-4_2                    0.00       0.00       0.00       0.00       0.00       0.00       0.00        0.00     0.00   0.000
  SUB-4_3                    0.00       0.00       0.00       0.00       0.00       0.00       0.00        0.00     0.00   0.000
  SUB-4_5                    0.00       0.00       0.00       0.00       0.00       0.00       0.00        0.00     0.00   0.000
  SUB-5_0                    0.00       0.00       0.00       0.00       0.00       0.00       0.00        0.00     0.00   0.000
  SUB-5_2                    0.00       0.00       0.00       0.00       0.00       0.00       0.00        0.00     0.00   0.000
  SUB-6_0                    0.00       0.00       0.00       0.00       0.00       0.00       0.00        0.00     0.00   0.000
  SUB-6_2                    0.00       0.00       0.00       0.00       0.00       0.00       0.00        0.00     0.00   0.000
  SUB-6_2B                   0.00       0.00       0.00       0.00       0.00       0.00       0.00        0.00     0.00   0.000
  SUB-7_0                    0.00       0.00       0.00       0.00       0.00       0.00       0.00        0.00     0.00   0.000
  SUB-7_1                    0.00       0.00       0.00       0.00       0.00       0.00       0.00        0.00     0.00   0.000
  SUB-8_0                    0.00       0.00       0.00       0.00       0.00       0.00       0.00        0.00     0.00   0.000
  SUB-8_1                    0.00       0.00       0.00       0.00       0.00       0.00       0.00        0.00     0.00   0.000
  SUB-8_4C                   0.00       0.00       0.00       0.00       0.00       0.00       0.00        0.00     0.00   0.000
  SUB-8_5                    0.00       0.00       0.00       0.00       0.00       0.00       0.00        0.00     0.00   0.000
  SUB-8_7                    0.00       0.00       0.00       0.00       0.00       0.00       0.00        0.00     0.00   0.000
  SUB-9_3                    0.00       0.00       0.00       0.00       0.00       0.00       0.00        0.00     0.00   0.000
  SUB-9_6                    0.00       0.00       0.00       0.00       0.00       0.00       0.00        0.00     0.00   0.000
  SUB-L10_0                  0.00       0.00       0.00       0.00       0.00       0.00       0.00        0.00     0.00   0.000
  SUB-L10_0B                 0.00       0.00       0.00       0.00       0.00       0.00       0.00        0.00     0.00   0.000
  SUB-L10_1                  0.00       0.00       0.00       0.00       0.00       0.00       0.00        0.00     0.00   0.000
  SUB-L10_1A                 0.00       0.00       0.00       0.00       0.00       0.00       0.00        0.00     0.00   0.000
  SUB-L10_2                  0.00       0.00       0.00       0.00       0.00       0.00       0.00        0.00     0.00   0.000
  SUB-L10_2A                 0.00       0.00       0.00       0.00       0.00       0.00       0.00        0.00     0.00   0.000
  SUB-L10_2B                 0.00       0.00       0.00       0.00       0.00       0.00       0.00        0.00     0.00   0.000
  SUB-L10_2C                 0.00       0.00       0.00       0.00       0.00       0.00       0.00        0.00     0.00   0.000
  SUB-L10_2D                 0.00       0.00       0.00       0.00       0.00       0.00       0.00        0.00     0.00   0.000
  SUB-L10_3                  0.00       0.00       0.00       0.00       0.00       0.00       0.00        0.00     0.00   0.000
  SUB-L10_3A                 0.00       0.00       0.00       0.00       0.00       0.00       0.00        0.00     0.00   0.000
  SUB-L10_5                  0.00       0.00       0.00       0.00       0.00       0.00       0.00        0.00     0.00   0.000
  SUB-L11_11                 0.00       0.00       0.00       0.00       0.00       0.00       0.00        0.00     0.00   0.000
  SUB-L11_12                 0.00       0.00       0.00       0.00       0.00       0.00       0.00        0.00     0.00   0.000
  SUB-L11_13                 0.00       0.00       0.00       0.00       0.00       0.00       0.00        0.00     0.00   0.000
  SUB-L11_14                 0.00       0.00       0.00       0.00       0.00       0.00       0.00        0.00     0.00   0.000
  SUB-L11_3                  0.00       0.00       0.00       0.00       0.00       0.00       0.00        0.00     0.00   0.000
  SUB-L11_9                  0.00       0.00       0.00       0.00       0.00       0.00       0.00        0.00     0.00   0.000
  SUB-L12_15                 0.00       0.00       0.00       0.00       0.00       0.00       0.00        0.00     0.00   0.000
  SUB-L12_17                 0.00       0.00       0.00       0.00       0.00       0.00       0.00        0.00     0.00   0.000
  SUB-L12_20                 0.00       0.00       0.00       0.00       0.00       0.00       0.00        0.00     0.00   0.000
  SUB-L12_20C                0.00       0.00       0.00       0.00       0.00       0.00       0.00        0.00     0.00   0.000
  SUB-L12_21                 0.00       0.00       0.00       0.00       0.00       0.00       0.00        0.00     0.00   0.000
  SUB-L12_6                  0.00       0.00       0.00       0.00       0.00       0.00       0.00        0.00     0.00   0.000
  SUB-L13_0                  0.00       0.00       0.00       0.00       0.00       0.00       0.00        0.00     0.00   0.000
  SUB-L13_1                  0.00       0.00       0.00       0.00       0.00       0.00       0.00        0.00     0.00   0.000
  SUB-L14_0                  0.00       0.00       0.00       0.00       0.00       0.00       0.00        0.00     0.00   0.000
  SUB-L14_1                  0.00       0.00       0.00       0.00       0.00       0.00       0.00        0.00     0.00   0.000
  SUB-L14_2                  0.00       0.00       0.00       0.00       0.00       0.00       0.00        0.00     0.00   0.000
  SUB-L15_3                  0.00       0.00       0.00       0.00       0.00       0.00       0.00        0.00     0.00   0.000
  SUB-L15_4                  0.00       0.00       0.00       0.00       0.00       0.00       0.00        0.00     0.00   0.000
  SUB-L15_5                  0.00       0.00       0.00       0.00       0.00       0.00       0.00        0.00     0.00   0.000
  SUB-L16_1                  0.00       0.00       0.00       0.00       0.00       0.00       0.00        0.00     0.00   0.000
  SUB-L17_0                  0.00       0.00       0.00       0.00       0.00       0.00       0.00        0.00     0.00   0.000
  SUB-L18_0                  0.00       0.00       0.00       0.00       0.00       0.00       0.00        0.00     0.00   0.000
  SUB-L19_0                  0.00       0.00       0.00       0.00       0.00       0.00       0.00        0.00     0.00   0.000
  SUB-L19_1                  0.00       0.00       0.00       0.00       0.00       0.00       0.00        0.00     0.00   0.000
  SUB-L1_0                   0.00       0.00       0.00       0.00       0.00       0.00       0.00        0.00     0.00   0.000
  SUB-L1_1                   0.00       0.00       0.00       0.00       0.00       0.00       0.00        0.00     0.00   0.000
  SUB-L1_11                  0.00       0.00       0.00       0.00       0.00       0.00       0.00        0.00     0.00   0.000
  SUB-L1_11A                 0.00       0.00       0.00       0.00       0.00       0.00       0.00        0.00     0.00   0.000
  SUB-L1_11B                 0.00       0.00       0.00       0.00       0.00       0.00       0.00        0.00     0.00   0.000
  SUB-L1_13                  0.00       0.00       0.00       0.00       0.00       0.00       0.00        0.00     0.00   0.000
  SUB-L1_14AX                0.00       0.00       0.00       0.00       0.00       0.00       0.00        0.00     0.00   0.000
  SUB-L1_14AY                0.00       0.00       0.00       0.00       0.00       0.00       0.00        0.00     0.00   0.000
  SUB-L1_15                  0.00       0.00       0.00       0.00       0.00       0.00       0.00        0.00     0.00   0.000
  SUB-L1_15A                 0.00       0.00       0.00       0.00       0.00       0.00       0.00        0.00     0.00   0.000
  SUB-L1_15B                 0.00       0.00       0.00       0.00       0.00       0.00       0.00        0.00     0.00   0.000
  SUB-L1_18A                 0.00       0.00       0.00       0.00       0.00       0.00       0.00        0.00     0.00   0.000
  SUB-L1_2                   0.00       0.00       0.00       0.00       0.00       0.00       0.00        0.00     0.00   0.000
  SUB-L1_4                   0.00       0.00       0.00       0.00       0.00       0.00       0.00        0.00     0.00   0.000
  SUB-L1_5                   0.00       0.00       0.00       0.00       0.00       0.00       0.00        0.00     0.00   0.000
  SUB-L1_6                   0.00       0.00       0.00       0.00       0.00       0.00       0.00        0.00     0.00   0.000
  SUB-L1_7                   0.00       0.00       0.00       0.00       0.00       0.00       0.00        0.00     0.00   0.000
  SUB-L1_8                   0.00       0.00       0.00       0.00       0.00       0.00       0.00        0.00     0.00   0.000
  SUB-L1_9                   0.00       0.00       0.00       0.00       0.00       0.00       0.00        0.00     0.00   0.000
  SUB-L1_9BV                 0.00       0.00       0.00       0.00       0.00       0.00       0.00        0.00     0.00   0.000
  SUB-L1_9BX                 0.00       0.00       0.00       0.00       0.00       0.00       0.00        0.00     0.00   0.000
  SUB-L1_9BY                 0.00       0.00       0.00       0.00       0.00       0.00       0.00        0.00     0.00   0.000
  SUB-L1_9BZ                 0.00       0.00       0.00       0.00       0.00       0.00       0.00        0.00     0.00   0.000
  SUB-L20_0                  0.00       0.00       0.00       0.00       0.00       0.00       0.00        0.00     0.00   0.000
  SUB-L21_0                  0.00       0.00       0.00       0.00       0.00       0.00       0.00        0.00     0.00   0.000
  SUB-L22_0                  0.00       0.00       0.00       0.00       0.00       0.00       0.00        0.00     0.00   0.000
  SUB-L22_1                  0.00       0.00       0.00       0.00       0.00       0.00       0.00        0.00     0.00   0.000
  SUB-L22_5                  0.00       0.00       0.00       0.00       0.00       0.00       0.00        0.00     0.00   0.000
  SUB-L22_6                  0.00       0.00       0.00       0.00       0.00       0.00       0.00        0.00     0.00   0.000
  SUB-L23_1                  0.00       0.00       0.00       0.00       0.00       0.00       0.00        0.00     0.00   0.000
  SUB-L24_0                  0.00       0.00       0.00       0.00       0.00       0.00       0.00        0.00     0.00   0.000
  SUB-L24_1                  0.00       0.00       0.00       0.00       0.00       0.00       0.00        0.00     0.00   0.000
  SUB-L24_2                  0.00       0.00       0.00       0.00       0.00       0.00       0.00        0.00     0.00   0.000
  SUB-L24_3                  0.00       0.00       0.00       0.00       0.00       0.00       0.00        0.00     0.00   0.000
  SUB-L24_4                  0.00       0.00       0.00       0.00       0.00       0.00       0.00        0.00     0.00   0.000
  SUB-L24_5                  0.00       0.00       0.00       0.00       0.00       0.00       0.00        0.00     0.00   0.000
  SUB-L25_0                  0.00       0.00       0.00       0.00       0.00       0.00       0.00        0.00     0.00   0.000
  SUB-L25_2                  0.00       0.00       0.00       0.00       0.00       0.00       0.00        0.00     0.00   0.000
  SUB-L25_3                  0.00       0.00       0.00       0.00       0.00       0.00       0.00        0.00     0.00   0.000
  SUB-L25_4                  0.00       0.00       0.00       0.00       0.00       0.00       0.00        0.00     0.00   0.000
  SUB-L25_5                  0.00       0.00       0.00       0.00       0.00       0.00       0.00        0.00     0.00   0.000
  SUB-L2_0                   0.00       0.00       0.00       0.00       0.00       0.00       0.00        0.00     0.00   0.000
  SUB-L2_0A                  0.00       0.00       0.00       0.00       0.00       0.00       0.00        0.00     0.00   0.000
  SUB-L2_0B                  0.00       0.00       0.00       0.00       0.00       0.00       0.00        0.00     0.00   0.000
  SUB-L2_0D                  0.00       0.00       0.00       0.00       0.00       0.00       0.00        0.00     0.00   0.000
  SUB-L2_0H                  0.00       0.00       0.00       0.00       0.00       0.00       0.00        0.00     0.00   0.000
  SUB-L2_0I                  0.00       0.00       0.00       0.00       0.00       0.00       0.00        0.00     0.00   0.000
  SUB-L2_0J                  0.00       0.00       0.00       0.00       0.00       0.00       0.00        0.00     0.00   0.000
  SUB-L2_0L                  0.00       0.00       0.00       0.00       0.00       0.00       0.00        0.00     0.00   0.000
  SUB-L2_0M                  0.00       0.00       0.00       0.00       0.00       0.00       0.00        0.00     0.00   0.000
  SUB-L2_0N                  0.00       0.00       0.00       0.00       0.00       0.00       0.00        0.00     0.00   0.000
  SUB-L3_1                   0.00       0.00       0.00       0.00       0.00       0.00       0.00        0.00     0.00   0.000
  SUB-L3_2                   0.00       0.00       0.00       0.00       0.00       0.00       0.00        0.00     0.00   0.000
  SUB-L3_3                   0.00       0.00       0.00       0.00       0.00       0.00       0.00        0.00     0.00   0.000
  SUB-L3_5                   0.00       0.00       0.00       0.00       0.00       0.00       0.00        0.00     0.00   0.000
  SUB-L4_2                   0.00       0.00       0.00       0.00       0.00       0.00       0.00        0.00     0.00   0.000
  SUB-L4_3                   0.00       0.00       0.00       0.00       0.00       0.00       0.00        0.00     0.00   0.000
  SUB-L5_0                   0.00       0.00       0.00       0.00       0.00       0.00       0.00        0.00     0.00   0.000
  SUB-L5_0A                  0.00       0.00       0.00       0.00       0.00       0.00       0.00        0.00     0.00   0.000
  SUB-L6_0                   0.00       0.00       0.00       0.00       0.00       0.00       0.00        0.00     0.00   0.000
  SUB-L6_1                   0.00       0.00       0.00       0.00       0.00       0.00       0.00        0.00     0.00   0.000
  SUB-L6_2                   0.00       0.00       0.00       0.00       0.00       0.00       0.00        0.00     0.00   0.000
  SUB-L7_0                   0.00       0.00       0.00       0.00       0.00       0.00       0.00        0.00     0.00   0.000
  SUB-L8_0                   0.00       0.00       0.00       0.00       0.00       0.00       0.00        0.00     0.00   0.000
  SUB-L8_1                   0.00       0.00       0.00       0.00       0.00       0.00       0.00        0.00     0.00   0.000
  SUB-L9_0                   0.00       0.00       0.00       0.00       0.00       0.00       0.00        0.00     0.00   0.000
  SUB-L9_1                   0.00       0.00       0.00       0.00       0.00       0.00       0.00        0.00     0.00   0.000
  SUB-L9_2A                  0.00       0.00       0.00       0.00       0.00       0.00       0.00        0.00     0.00   0.000
  SUB-L9_2X                  0.00       0.00       0.00       0.00       0.00       0.00       0.00        0.00     0.00   0.000
  SUB-L9_2Y                  0.00       0.00       0.00       0.00       0.00       0.00       0.00        0.00     0.00   0.000
  SUB-L9_3                   0.00       0.00       0.00       0.00       0.00       0.00       0.00        0.00     0.00   0.000
  SUB-L9_4                   0.00       0.00       0.00       0.00       0.00       0.00       0.00        0.00     0.00   0.000
  SUB-NN1                    0.00       0.00       0.00       0.00       0.00       0.00       0.00        0.00     0.00   0.000
  SUB-NN2                    0.00       0.00       0.00       0.00       0.00       0.00       0.00        0.00     0.00   0.000
  SUB-NN3                    0.00       0.00       0.00       0.00       0.00       0.00       0.00        0.00     0.00   0.000
  SUB-NN4                    0.00       0.00       0.00       0.00       0.00       0.00       0.00        0.00     0.00   0.000
  SUB-NN5                    0.00       0.00       0.00       0.00       0.00       0.00       0.00        0.00     0.00   0.000
  SUB-NN6                    0.00       0.00       0.00       0.00       0.00       0.00       0.00        0.00     0.00   0.000
  SUB-UDOT_1                 0.00       0.00       0.00       0.00       0.00       0.00       0.00        0.00     0.00   0.000
  _OREM_1                    0.00       0.00       0.00       0.00       0.00       0.00       0.00        0.00     0.00   0.000
  _OREM_2                    0.00       0.00       0.00       0.00       0.00       0.00       0.00        0.00     0.00   0.000
  _OREM_3                    0.00       0.00       0.00       0.00       0.00       0.00       0.00        0.00     0.00   0.000
  _OREM_4                    0.00       0.00       0.00       0.00       0.00       0.00       0.00        0.00     0.00   0.000
  
  
  ******************
  Node Depth Summary
  ******************
  
  ---------------------------------------------------------------------------------
                                 Average  Maximum  Maximum  Time of Max    Reported
                                   Depth    Depth      HGL   Occurrence   Max Depth
  Node                 Type         Feet     Feet     Feet  days hr:min        Feet
  ---------------------------------------------------------------------------------
  1-17B                JUNCTION  -nan(ind)     0.00  4644.20     0  00:00        0.00
  10_0                 JUNCTION  -nan(ind)     0.00  4697.00     0  00:00        0.00
  10_0A                JUNCTION  -nan(ind)     0.00  4655.00     0  00:00        0.00
  10_1                 JUNCTION  -nan(ind)     0.00  4635.00     0  00:00        0.00
  10_1A                JUNCTION  -nan(ind)     0.00  4623.00     0  00:00        0.00
  10_2                 JUNCTION  -nan(ind)     0.00  4619.00     0  00:00        0.00
  10_2A                JUNCTION  -nan(ind)     0.00  4633.30     0  00:00        0.00
  10_3                 JUNCTION  -nan(ind)     0.00  4618.50     0  00:00        0.00
  11_0                 JUNCTION  -nan(ind)     0.00  4713.00     0  00:00        0.00
  11_0A                JUNCTION  -nan(ind)     0.00  4710.10     0  00:00        0.00
  11_0B                JUNCTION  -nan(ind)     0.00  4705.00     0  00:00        0.00
  11_1                 JUNCTION  -nan(ind)     0.00  4697.80     0  00:00        0.00
  11_1A                JUNCTION  -nan(ind)     0.00  4697.30     0  00:00        0.00
  11_1B                JUNCTION  -nan(ind)     0.00  4668.30     0  00:00        0.00
  11_1C                JUNCTION  -nan(ind)     0.00  4640.00     0  00:00        0.00
  11_2                 JUNCTION  -nan(ind)     0.00  4635.00     0  00:00        0.00
  11_2A                JUNCTION  -nan(ind)     0.00  4633.50     0  00:00        0.00
  12_1                 JUNCTION  -nan(ind)     0.00  4684.50     0  00:00        0.00
  12_2                 JUNCTION  -nan(ind)     0.00  4628.10     0  00:00        0.00
  12_3                 JUNCTION  -nan(ind)     0.00  4627.40     0  00:00        0.00
  12_4                 JUNCTION  -nan(ind)     0.00  4620.10     0  00:00        0.00
  12_4A                JUNCTION  -nan(ind)     0.00  4609.50     0  00:00        0.00
  12_4B                JUNCTION  -nan(ind)     0.00  4597.20     0  00:00        0.00
  13_0                 JUNCTION  -nan(ind)     0.00  4630.40     0  00:00        0.00
  14_0                 JUNCTION  -nan(ind)     0.00  4766.00     0  00:00        0.00
  14_0A                JUNCTION  -nan(ind)     0.00  4759.00     0  00:00        0.00
  14_1                 JUNCTION  -nan(ind)     0.00  4757.40     0  00:00        0.00
  14_1A                JUNCTION  -nan(ind)     0.00  4756.50     0  00:00        0.00
  14_2                 JUNCTION  -nan(ind)     0.00  4747.00     0  00:00        0.00
  14_3                 JUNCTION  -nan(ind)     0.00  4745.10     0  00:00        0.00
  15_0                 JUNCTION  -nan(ind)     0.00  4653.00     0  00:00        0.00
  15_1_1               JUNCTION  -nan(ind)     0.00  4650.00     0  00:00        0.00
  15_2                 JUNCTION  -nan(ind)     0.00  4648.00     0  00:00        0.00
  16_0                 JUNCTION  -nan(ind)     0.00  4706.00     0  00:00        0.00
  17_0                 JUNCTION  -nan(ind)     0.00  4566.80     0  00:00        0.00
  1_0A                 JUNCTION  -nan(ind)     0.00  4852.25     0  00:00        0.00
  1_0C                 JUNCTION  -nan(ind)     0.00  4841.92     0  00:00        0.00
  1_1                  JUNCTION  -nan(ind)     0.00  4830.70     0  00:00        0.00
  1_10                 JUNCTION  -nan(ind)     0.00  4727.30     0  00:00        0.00
  1_10A                JUNCTION  -nan(ind)     0.00  4724.10     0  00:00        0.00
  1_11                 JUNCTION  -nan(ind)     0.00  4723.10     0  00:00        0.00
  1_12                 JUNCTION  -nan(ind)     0.00  4720.50     0  00:00        0.00
  1_12A                JUNCTION  -nan(ind)     0.00  4713.90     0  00:00        0.00
  1_13                 JUNCTION  -nan(ind)     0.00  4708.00     0  00:00        0.00
  1_13A                JUNCTION  -nan(ind)     0.00  4698.90     0  00:00        0.00
  1_14                 JUNCTION  -nan(ind)     0.00  4684.80     0  00:00        0.00
  1_14A                JUNCTION  -nan(ind)     0.00  4672.30     0  00:00        0.00
  1_15A                JUNCTION  -nan(ind)     0.00  4668.90     0  00:00        0.00
  1_15C                JUNCTION  -nan(ind)     0.00  4655.50     0  00:00        0.00
  1_16                 JUNCTION  -nan(ind)     0.00  4647.80     0  00:00        0.00
  1_17                 JUNCTION  -nan(ind)     0.00  4644.30     0  00:00        0.00
  1_17A                JUNCTION  -nan(ind)     0.00  4639.80     0  00:00        0.00
  1_17B                JUNCTION  -nan(ind)     0.00  4636.40     0  00:00        0.00
  1_18                 JUNCTION  -nan(ind)     0.00  4636.10     0  00:00        0.00
  1_18A                JUNCTION  -nan(ind)     0.00  4632.50     0  00:00        0.00
  1_19                 JUNCTION  -nan(ind)     0.00  4632.10     0  00:00        0.00
  1_19A                JUNCTION  -nan(ind)     0.00  4624.90     0  00:00        0.00
  1_2                  JUNCTION  -nan(ind)     0.00  4817.50     0  00:00        0.00
  1_20                 JUNCTION  -nan(ind)     0.00  4616.80     0  00:00        0.00
  1_20A                JUNCTION  -nan(ind)     0.00  4612.80     0  00:00        0.00
  1_20B                JUNCTION  -nan(ind)     0.00  4609.70     0  00:00        0.00
  1_20C                JUNCTION  -nan(ind)     0.00  4594.50     0  00:00        0.00
  1_20D                JUNCTION  -nan(ind)     0.00  4617.14     0  00:00        0.00
  1_20E                JUNCTION  -nan(ind)     0.00  4617.41     0  00:00        0.00
  1_20F                JUNCTION  -nan(ind)     0.00  4617.61     0  00:00        0.00
  1_21                 JUNCTION  -nan(ind)     0.00  4587.87     0  00:00        0.00
  1_21A                JUNCTION  -nan(ind)     0.00  4586.35     0  00:00        0.00
  1_22                 JUNCTION  -nan(ind)     0.00  4583.54     0  00:00        0.00
  1_22A                JUNCTION  -nan(ind)     0.00  4583.39     0  00:00        0.00
  1_22B                JUNCTION  -nan(ind)     0.00  4582.20     0  00:00        0.00
  1_22C                JUNCTION  -nan(ind)     0.00  4581.49     0  00:00        0.00
  1_23                 JUNCTION  -nan(ind)     0.00  4581.80     0  00:00        0.00
  1_23A                JUNCTION  -nan(ind)     0.00  4580.49     0  00:00        0.00
  1_24                 JUNCTION  -nan(ind)     0.00  4579.33     0  00:00        0.00
  1_24A                JUNCTION  -nan(ind)     0.00  4574.70     0  00:00        0.00
  1_25                 JUNCTION  -nan(ind)     0.00  4573.50     0  00:00        0.00
  1_25A                JUNCTION  -nan(ind)     0.00  4568.70     0  00:00        0.00
  1_25B                JUNCTION  -nan(ind)     0.00  4566.90     0  00:00        0.00
  1_25C                JUNCTION  -nan(ind)     0.00  4566.30     0  00:00        0.00
  1_26                 JUNCTION  -nan(ind)     0.00  4564.80     0  00:00        0.00
  1_26A                JUNCTION  -nan(ind)     0.00  4557.50     0  00:00        0.00
  1_26B                JUNCTION  -nan(ind)     0.00  4551.80     0  00:00        0.00
  1_27                 JUNCTION  -nan(ind)     0.00  4551.20     0  00:00        0.00
  1_28                 JUNCTION  -nan(ind)     0.00  4547.90     0  00:00        0.00
  1_29                 JUNCTION  -nan(ind)     0.00  4544.40     0  00:00        0.00
  1_2A                 JUNCTION  -nan(ind)     0.00  4802.10     0  00:00        0.00
  1_2B                 JUNCTION  -nan(ind)     0.00  4786.30     0  00:00        0.00
  1_3                  JUNCTION  -nan(ind)     0.00  4785.00     0  00:00        0.00
  1_30                 JUNCTION  -nan(ind)     0.00  4540.00     0  00:00        0.00
  1_31                 JUNCTION  -nan(ind)     0.00  4515.00     0  00:00        0.00
  1_31A                JUNCTION  -nan(ind)     0.00  4504.91     0  00:00        0.00
  1_31B                JUNCTION  -nan(ind)     0.00  4498.01     0  00:00        0.00
  1_31C                JUNCTION  -nan(ind)     0.00  4496.40     0  00:00        0.00
  1_3A                 JUNCTION  -nan(ind)     0.00  4793.20     0  00:00        0.00
  1_4                  JUNCTION  -nan(ind)     0.00  4779.20     0  00:00        0.00
  1_4A                 JUNCTION  -nan(ind)     0.00  4780.40     0  00:00        0.00
  1_5                  JUNCTION  -nan(ind)     0.00  4778.50     0  00:00        0.00
  1_6                  JUNCTION  -nan(ind)     0.00  4766.70     0  00:00        0.00
  1_7                  JUNCTION  -nan(ind)     0.00  4748.40     0  00:00        0.00
  1_8                  JUNCTION  -nan(ind)     0.00  4738.70     0  00:00        0.00
  1_8A                 JUNCTION  -nan(ind)     0.00  4736.20     0  00:00        0.00
  1_9                  JUNCTION  -nan(ind)     0.00  4732.80     0  00:00        0.00
  200S_10              JUNCTION  -nan(ind)     0.00  4636.00     0  00:00        0.00
  200S_11P             JUNCTION  -nan(ind)     0.00  4639.00     0  00:00        0.00
  200S_4               JUNCTION  -nan(ind)     0.00  4715.21     0  00:00        0.00
  200S_5               JUNCTION  -nan(ind)     0.00  4704.00     0  00:00        0.00
  200S_6               JUNCTION  -nan(ind)     0.00  4708.54     0  00:00        0.00
  200S_7               JUNCTION  -nan(ind)     0.00  4670.00     0  00:00        0.00
  200S_8               JUNCTION  -nan(ind)     0.00  4661.00     0  00:00        0.00
  200S_9               JUNCTION  -nan(ind)     0.00  4646.00     0  00:00        0.00
  28_0                 JUNCTION  -nan(ind)     0.00  4500.04     0  00:00        0.00
  28_01                JUNCTION  -nan(ind)     0.00  4501.60     0  00:00        0.00
  28_02                JUNCTION  -nan(ind)     0.00  4496.20     0  00:00        0.00
  28_03                JUNCTION  -nan(ind)     0.00  4495.28     0  00:00        0.00
  28_04                JUNCTION  -nan(ind)     0.00  4494.50     0  00:00        0.00
  28_05                JUNCTION  -nan(ind)     0.00  4493.40     0  00:00        0.00
  28_1                 JUNCTION  -nan(ind)     0.00  4498.85     0  00:00        0.00
  28_2                 JUNCTION  -nan(ind)     0.00  4496.00     0  00:00        0.00
  28_3                 JUNCTION  -nan(ind)     0.00  4494.12     0  00:00        0.00
  28_4                 JUNCTION  -nan(ind)     0.00  4492.50     0  00:00        0.00
  28_5                 JUNCTION  -nan(ind)     0.00  4490.96     0  00:00        0.00
  28_6                 JUNCTION  -nan(ind)     0.00  4487.17     0  00:00        0.00
  28_7                 JUNCTION  -nan(ind)     0.00  4486.90     0  00:00        0.00
  2_0                  JUNCTION  -nan(ind)     0.00  4785.70     0  00:00        0.00
  2_0A                 JUNCTION  -nan(ind)     0.00  4785.40     0  00:00        0.00
  2_0B                 JUNCTION  -nan(ind)     0.00  4783.20     0  00:00        0.00
  2_1                  JUNCTION  -nan(ind)     0.00  4780.50     0  00:00        0.00
  2_1A                 JUNCTION  -nan(ind)     0.00  4767.20     0  00:00        0.00
  2_2                  JUNCTION  -nan(ind)     0.00  4740.60     0  00:00        0.00
  2_3                  JUNCTION  -nan(ind)     0.00  4735.70     0  00:00        0.00
  2_4                  JUNCTION  -nan(ind)     0.00  4724.80     0  00:00        0.00
  2_5                  JUNCTION  -nan(ind)     0.00  4701.20     0  00:00        0.00
  2_6                  JUNCTION  -nan(ind)     0.00  4689.00     0  00:00        0.00
  2_6A                 JUNCTION  -nan(ind)     0.00  4687.40     0  00:00        0.00
  3_0                  JUNCTION  -nan(ind)     0.00  4783.60     0  00:00        0.00
  3_1                  JUNCTION  -nan(ind)     0.00  4781.70     0  00:00        0.00
  4_0                  JUNCTION  -nan(ind)     0.00  4871.70     0  00:00        0.00
  4_0A                 JUNCTION  -nan(ind)     0.00  4868.70     0  00:00        0.00
  4_0B                 JUNCTION  -nan(ind)     0.00  4862.00     0  00:00        0.00
  4_1                  JUNCTION  -nan(ind)     0.00  4860.00     0  00:00        0.00
  4_1A                 JUNCTION  -nan(ind)     0.00  4859.60     0  00:00        0.00
  4_1B                 JUNCTION  -nan(ind)     0.00  4858.50     0  00:00        0.00
  4_2                  JUNCTION  -nan(ind)     0.00  4852.50     0  00:00        0.00
  4_2A                 JUNCTION  -nan(ind)     0.00  4834.50     0  00:00        0.00
  4_2B                 JUNCTION  -nan(ind)     0.00  4832.20     0  00:00        0.00
  4_2C                 JUNCTION  -nan(ind)     0.00  4810.60     0  00:00        0.00
  4_2D                 JUNCTION  -nan(ind)     0.00  4789.80     0  00:00        0.00
  4_3                  JUNCTION  -nan(ind)     0.00  4788.50     0  00:00        0.00
  4_3A                 JUNCTION  -nan(ind)     0.00  4775.30     0  00:00        0.00
  4_3B                 JUNCTION  -nan(ind)     0.00  4771.80     0  00:00        0.00
  4_3C                 JUNCTION  -nan(ind)     0.00  4761.90     0  00:00        0.00
  4_3D                 JUNCTION  -nan(ind)     0.00  4749.30     0  00:00        0.00
  4_4A                 JUNCTION  -nan(ind)     0.00  4734.50     0  00:00        0.00
  4_4B                 JUNCTION  -nan(ind)     0.00  4733.30     0  00:00        0.00
  4_4C                 JUNCTION  -nan(ind)     0.00  4732.50     0  00:00        0.00
  4_4D                 JUNCTION  -nan(ind)     0.00  4731.60     0  00:00        0.00
  4_4E                 JUNCTION  -nan(ind)     0.00  4730.90     0  00:00        0.00
  4_5                  JUNCTION  -nan(ind)     0.00  4727.50     0  00:00        0.00
  4_5A                 JUNCTION  -nan(ind)     0.00  4727.00     0  00:00        0.00
  4_5B                 JUNCTION  -nan(ind)     0.00  4726.70     0  00:00        0.00
  4_5C                 JUNCTION  -nan(ind)     0.00  4725.80     0  00:00        0.00
  4_5D                 JUNCTION  -nan(ind)     0.00  4721.90     0  00:00        0.00
  4_5E                 JUNCTION  -nan(ind)     0.00  4717.80     0  00:00        0.00
  4_5F                 JUNCTION  -nan(ind)     0.00  4705.30     0  00:00        0.00
  5_0A                 JUNCTION  -nan(ind)     0.00  4830.50     0  00:00        0.00
  5_1                  JUNCTION  -nan(ind)     0.00  4820.60     0  00:00        0.00
  5_1A                 JUNCTION  -nan(ind)     0.00  4809.20     0  00:00        0.00
  5_2                  JUNCTION  -nan(ind)     0.00  4792.00     0  00:00        0.00
  6_0                  JUNCTION  -nan(ind)     0.00  4783.00     0  00:00        0.00
  6_0A                 JUNCTION  -nan(ind)     0.00  4776.00     0  00:00        0.00
  6_1                  JUNCTION  -nan(ind)     0.00  4770.70     0  00:00        0.00
  6_1A                 JUNCTION  -nan(ind)     0.00  4757.90     0  00:00        0.00
  6_2                  JUNCTION  -nan(ind)     0.00  4756.30     0  00:00        0.00
  6_2A                 JUNCTION  -nan(ind)     0.00  4749.10     0  00:00        0.00
  6_2B                 JUNCTION  -nan(ind)     0.00  4738.30     0  00:00        0.00
  7_0                  JUNCTION  -nan(ind)     0.00  4771.50     0  00:00        0.00
  7_0A                 JUNCTION  -nan(ind)     0.00  4763.50     0  00:00        0.00
  7_0B                 JUNCTION  -nan(ind)     0.00  4749.50     0  00:00        0.00
  7_1                  JUNCTION  -nan(ind)     0.00  4743.10     0  00:00        0.00
  8_0                  JUNCTION  -nan(ind)     0.00  4645.95     0  00:00        0.00
  8_1                  JUNCTION  -nan(ind)     0.00  4643.14     0  00:00        0.00
  8_1A                 JUNCTION  -nan(ind)     0.00  4638.13     0  00:00        0.00
  8_1B                 JUNCTION  -nan(ind)     0.00  4626.92     0  00:00        0.00
  8_1C                 JUNCTION  -nan(ind)     0.00  4614.88     0  00:00        0.00
  8_1D                 JUNCTION  -nan(ind)     0.00  4610.58     0  00:00        0.00
  8_2                  JUNCTION  -nan(ind)     0.00  4607.48     0  00:00        0.00
  8_2A                 JUNCTION  -nan(ind)     0.00  4607.26     0  00:00        0.00
  8_2B                 JUNCTION  -nan(ind)     0.00  4606.90     0  00:00        0.00
  8_3                  JUNCTION  -nan(ind)     0.00  4604.53     0  00:00        0.00
  8_3A                 JUNCTION  -nan(ind)     0.00  4603.35     0  00:00        0.00
  8_3B                 JUNCTION  -nan(ind)     0.00  4603.26     0  00:00        0.00
  8_3C                 JUNCTION  -nan(ind)     0.00  4602.70     0  00:00        0.00
  8_4                  JUNCTION  -nan(ind)     0.00  4602.56     0  00:00        0.00
  8_4A                 JUNCTION  -nan(ind)     0.00  4601.02     0  00:00        0.00
  8_4B                 JUNCTION  -nan(ind)     0.00  4600.62     0  00:00        0.00
  8_4C                 JUNCTION  -nan(ind)     0.00  4602.96     0  00:00        0.00
  8_5                  JUNCTION  -nan(ind)     0.00  4602.35     0  00:00        0.00
  8_5A                 JUNCTION  -nan(ind)     0.00  4601.76     0  00:00        0.00
[...]
  L13-0                   1.00   -nan(ind)  -nan(ind)  -nan(ind)  -nan(ind)  -nan(ind)  -nan(ind)  -nan(ind)  -nan(ind)  -nan(ind)
  L13-1                   1.00   -nan(ind)  -nan(ind)  -nan(ind)  -nan(ind)  -nan(ind)  -nan(ind)  -nan(ind)  -nan(ind)  -nan(ind)
  L14-0                  55.62   -nan(ind)  -nan(ind)  -nan(ind)  -nan(ind)  -nan(ind)  -nan(ind)  -nan(ind)  -nan(ind)  -nan(ind)
  L14-1                   1.00   -nan(ind)  -nan(ind)  -nan(ind)  -nan(ind)  -nan(ind)  -nan(ind)  -nan(ind)  -nan(ind)  -nan(ind)
  L14-2                   1.00   -nan(ind)  -nan(ind)  -nan(ind)  -nan(ind)  -nan(ind)  -nan(ind)  -nan(ind)  -nan(ind)  -nan(ind)
  L14-3                   2.66   -nan(ind)  -nan(ind)  -nan(ind)  -nan(ind)  -nan(ind)  -nan(ind)  -nan(ind)  -nan(ind)  -nan(ind)
  L14-4                   2.08   -nan(ind)  -nan(ind)  -nan(ind)  -nan(ind)  -nan(ind)  -nan(ind)  -nan(ind)  -nan(ind)  -nan(ind)
  L14-5                   6.97   -nan(ind)  -nan(ind)  -nan(ind)  -nan(ind)  -nan(ind)  -nan(ind)  -nan(ind)  -nan(ind)  -nan(ind)
  L15-0                   2.17   -nan(ind)  -nan(ind)  -nan(ind)  -nan(ind)  -nan(ind)  -nan(ind)  -nan(ind)  -nan(ind)  -nan(ind)
  L15-1                   1.00   -nan(ind)  -nan(ind)  -nan(ind)  -nan(ind)  -nan(ind)  -nan(ind)  -nan(ind)  -nan(ind)  -nan(ind)
  L15-2                   1.00   -nan(ind)  -nan(ind)  -nan(ind)  -nan(ind)  -nan(ind)  -nan(ind)  -nan(ind)  -nan(ind)  -nan(ind)
  L15-3                   1.00   -nan(ind)  -nan(ind)  -nan(ind)  -nan(ind)  -nan(ind)  -nan(ind)  -nan(ind)  -nan(ind)  -nan(ind)
  L15-4                   1.00   -nan(ind)  -nan(ind)  -nan(ind)  -nan(ind)  -nan(ind)  -nan(ind)  -nan(ind)  -nan(ind)  -nan(ind)
  L15-5                   1.94   -nan(ind)  -nan(ind)  -nan(ind)  -nan(ind)  -nan(ind)  -nan(ind)  -nan(ind)  -nan(ind)  -nan(ind)
  L16-1                   1.00   -nan(ind)  -nan(ind)  -nan(ind)  -nan(ind)  -nan(ind)  -nan(ind)  -nan(ind)  -nan(ind)  -nan(ind)
  L16-2                   1.00   -nan(ind)  -nan(ind)  -nan(ind)  -nan(ind)  -nan(ind)  -nan(ind)  -nan(ind)  -nan(ind)  -nan(ind)
  L16-3                   1.00   -nan(ind)  -nan(ind)  -nan(ind)  -nan(ind)  -nan(ind)  -nan(ind)  -nan(ind)  -nan(ind)  -nan(ind)
  L17-0                   2.91   -nan(ind)  -nan(ind)  -nan(ind)  -nan(ind)  -nan(ind)  -nan(ind)  -nan(ind)  -nan(ind)  -nan(ind)
  L18-0                   6.33   -nan(ind)  -nan(ind)  -nan(ind)  -nan(ind)  -nan(ind)  -nan(ind)  -nan(ind)  -nan(ind)  -nan(ind)
  L19-0                   1.00   -nan(ind)  -nan(ind)  -nan(ind)  -nan(ind)  -nan(ind)  -nan(ind)  -nan(ind)  -nan(ind)  -nan(ind)
  L19-1                   1.00   -nan(ind)  -nan(ind)  -nan(ind)  -nan(ind)  -nan(ind)  -nan(ind)  -nan(ind)  -nan(ind)  -nan(ind)
  L19-2                   1.00   -nan(ind)  -nan(ind)  -nan(ind)  -nan(ind)  -nan(ind)  -nan(ind)  -nan(ind)  -nan(ind)  -nan(ind)
  L2-0                    1.00   -nan(ind)  -nan(ind)  -nan(ind)  -nan(ind)  -nan(ind)  -nan(ind)  -nan(ind)  -nan(ind)  -nan(ind)
  L2-0A                   1.00   -nan(ind)  -nan(ind)  -nan(ind)  -nan(ind)  -nan(ind)  -nan(ind)  -nan(ind)  -nan(ind)  -nan(ind)
  L2-0B                   1.00   -nan(ind)  -nan(ind)  -nan(ind)  -nan(ind)  -nan(ind)  -nan(ind)  -nan(ind)  -nan(ind)  -nan(ind)
  L2-0C                   1.58   -nan(ind)  -nan(ind)  -nan(ind)  -nan(ind)  -nan(ind)  -nan(ind)  -nan(ind)  -nan(ind)  -nan(ind)
  L2-0D                   3.67   -nan(ind)  -nan(ind)  -nan(ind)  -nan(ind)  -nan(ind)  -nan(ind)  -nan(ind)  -nan(ind)  -nan(ind)
  L2-0E                   1.12   -nan(ind)  -nan(ind)  -nan(ind)  -nan(ind)  -nan(ind)  -nan(ind)  -nan(ind)  -nan(ind)  -nan(ind)
  L2-0F                   2.85   -nan(ind)  -nan(ind)  -nan(ind)  -nan(ind)  -nan(ind)  -nan(ind)  -nan(ind)  -nan(ind)  -nan(ind)
  L2-0G                   1.43   -nan(ind)  -nan(ind)  -nan(ind)  -nan(ind)  -nan(ind)  -nan(ind)  -nan(ind)  -nan(ind)  -nan(ind)
  L2-0H                   1.00   -nan(ind)  -nan(ind)  -nan(ind)  -nan(ind)  -nan(ind)  -nan(ind)  -nan(ind)  -nan(ind)  -nan(ind)
  L2-0I                   1.00   -nan(ind)  -nan(ind)  -nan(ind)  -nan(ind)  -nan(ind)  -nan(ind)  -nan(ind)  -nan(ind)  -nan(ind)
  L2-0J                   1.21   -nan(ind)  -nan(ind)  -nan(ind)  -nan(ind)  -nan(ind)  -nan(ind)  -nan(ind)  -nan(ind)  -nan(ind)
  L2-0K                   1.00   -nan(ind)  -nan(ind)  -nan(ind)  -nan(ind)  -nan(ind)  -nan(ind)  -nan(ind)  -nan(ind)  -nan(ind)
  L2-0L                   1.00   -nan(ind)  -nan(ind)  -nan(ind)  -nan(ind)  -nan(ind)  -nan(ind)  -nan(ind)  -nan(ind)  -nan(ind)
  L2-0M                   1.00   -nan(ind)  -nan(ind)  -nan(ind)  -nan(ind)  -nan(ind)  -nan(ind)  -nan(ind)  -nan(ind)  -nan(ind)
  L2-0N                  11.50   -nan(ind)  -nan(ind)  -nan(ind)  -nan(ind)  -nan(ind)  -nan(ind)  -nan(ind)  -nan(ind)  -nan(ind)
  L2-1                    1.00   -nan(ind)  -nan(ind)  -nan(ind)  -nan(ind)  -nan(ind)  -nan(ind)  -nan(ind)  -nan(ind)  -nan(ind)
  L20-0                   5.96   -nan(ind)  -nan(ind)  -nan(ind)  -nan(ind)  -nan(ind)  -nan(ind)  -nan(ind)  -nan(ind)  -nan(ind)
  L21-0                   1.09   -nan(ind)  -nan(ind)  -nan(ind)  -nan(ind)  -nan(ind)  -nan(ind)  -nan(ind)  -nan(ind)  -nan(ind)
  L22-0                   1.00   -nan(ind)  -nan(ind)  -nan(ind)  -nan(ind)  -nan(ind)  -nan(ind)  -nan(ind)  -nan(ind)  -nan(ind)
  L22-1                   1.00   -nan(ind)  -nan(ind)  -nan(ind)  -nan(ind)  -nan(ind)  -nan(ind)  -nan(ind)  -nan(ind)  -nan(ind)
  L22-2                   1.00   -nan(ind)  -nan(ind)  -nan(ind)  -nan(ind)  -nan(ind)  -nan(ind)  -nan(ind)  -nan(ind)  -nan(ind)
  L22-3                   1.00   -nan(ind)  -nan(ind)  -nan(ind)  -nan(ind)  -nan(ind)  -nan(ind)  -nan(ind)  -nan(ind)  -nan(ind)
  L22-4                   1.08   -nan(ind)  -nan(ind)  -nan(ind)  -nan(ind)  -nan(ind)  -nan(ind)  -nan(ind)  -nan(ind)  -nan(ind)
  L22-5                   3.66   -nan(ind)  -nan(ind)  -nan(ind)  -nan(ind)  -nan(ind)  -nan(ind)  -nan(ind)  -nan(ind)  -nan(ind)
  L23-1                   1.04   -nan(ind)  -nan(ind)  -nan(ind)  -nan(ind)  -nan(ind)  -nan(ind)  -nan(ind)  -nan(ind)  -nan(ind)
  L23-3                   1.00   -nan(ind)  -nan(ind)  -nan(ind)  -nan(ind)  -nan(ind)  -nan(ind)  -nan(ind)  -nan(ind)  -nan(ind)
  L24-0                   1.00   -nan(ind)  -nan(ind)  -nan(ind)  -nan(ind)  -nan(ind)  -nan(ind)  -nan(ind)  -nan(ind)  -nan(ind)
  L24-1                   1.00   -nan(ind)  -nan(ind)  -nan(ind)  -nan(ind)  -nan(ind)  -nan(ind)  -nan(ind)  -nan(ind)  -nan(ind)
  L24-3                   1.00   -nan(ind)  -nan(ind)  -nan(ind)  -nan(ind)  -nan(ind)  -nan(ind)  -nan(ind)  -nan(ind)  -nan(ind)
  L24-4                   1.00   -nan(ind)  -nan(ind)  -nan(ind)  -nan(ind)  -nan(ind)  -nan(ind)  -nan(ind)  -nan(ind)  -nan(ind)
  L24-5                   1.00   -nan(ind)  -nan(ind)  -nan(ind)  -nan(ind)  -nan(ind)  -nan(ind)  -nan(ind)  -nan(ind)  -nan(ind)
  L25-0                   1.00   -nan(ind)  -nan(ind)  -nan(ind)  -nan(ind)  -nan(ind)  -nan(ind)  -nan(ind)  -nan(ind)  -nan(ind)
  L25-1                   1.42   -nan(ind)  -nan(ind)  -nan(ind)  -nan(ind)  -nan(ind)  -nan(ind)  -nan(ind)  -nan(ind)  -nan(ind)
  L25-2                   1.00   -nan(ind)  -nan(ind)  -nan(ind)  -nan(ind)  -nan(ind)  -nan(ind)  -nan(ind)  -nan(ind)  -nan(ind)
  L25-3                   1.00   -nan(ind)  -nan(ind)  -nan(ind)  -nan(ind)  -nan(ind)  -nan(ind)  -nan(ind)  -nan(ind)  -nan(ind)
  L25-4                   3.15   -nan(ind)  -nan(ind)  -nan(ind)  -nan(ind)  -nan(ind)  -nan(ind)  -nan(ind)  -nan(ind)  -nan(ind)
  L25-5                   3.37   -nan(ind)  -nan(ind)  -nan(ind)  -nan(ind)  -nan(ind)  -nan(ind)  -nan(ind)  -nan(ind)  -nan(ind)
  L3-0                    1.00   -nan(ind)  -nan(ind)  -nan(ind)  -nan(ind)  -nan(ind)  -nan(ind)  -nan(ind)  -nan(ind)  -nan(ind)
  L3-1                    1.00   -nan(ind)  -nan(ind)  -nan(ind)  -nan(ind)  -nan(ind)  -nan(ind)  -nan(ind)  -nan(ind)  -nan(ind)
  L3-1A                   2.41   -nan(ind)  -nan(ind)  -nan(ind)  -nan(ind)  -nan(ind)  -nan(ind)  -nan(ind)  -nan(ind)  -nan(ind)
  L3-2                    1.00   -nan(ind)  -nan(ind)  -nan(ind)  -nan(ind)  -nan(ind)  -nan(ind)  -nan(ind)  -nan(ind)  -nan(ind)
  L3-3                    1.00   -nan(ind)  -nan(ind)  -nan(ind)  -nan(ind)  -nan(ind)  -nan(ind)  -nan(ind)  -nan(ind)  -nan(ind)
  L3-5                    1.90   -nan(ind)  -nan(ind)  -nan(ind)  -nan(ind)  -nan(ind)  -nan(ind)  -nan(ind)  -nan(ind)  -nan(ind)
  L4-0                    1.00   -nan(ind)  -nan(ind)  -nan(ind)  -nan(ind)  -nan(ind)  -nan(ind)  -nan(ind)  -nan(ind)  -nan(ind)
  L4-1                    1.00   -nan(ind)  -nan(ind)  -nan(ind)  -nan(ind)  -nan(ind)  -nan(ind)  -nan(ind)  -nan(ind)  -nan(ind)
  L4-2                    1.00   -nan(ind)  -nan(ind)  -nan(ind)  -nan(ind)  -nan(ind)  -nan(ind)  -nan(ind)  -nan(ind)  -nan(ind)
  L4-3                    1.00   -nan(ind)  -nan(ind)  -nan(ind)  -nan(ind)  -nan(ind)  -nan(ind)  -nan(ind)  -nan(ind)  -nan(ind)
  L5-0                    1.00   -nan(ind)  -nan(ind)  -nan(ind)  -nan(ind)  -nan(ind)  -nan(ind)  -nan(ind)  -nan(ind)  -nan(ind)
  L5-0A                   1.00   -nan(ind)  -nan(ind)  -nan(ind)  -nan(ind)  -nan(ind)  -nan(ind)  -nan(ind)  -nan(ind)  -nan(ind)
  L5-0B                   4.00   -nan(ind)  -nan(ind)  -nan(ind)  -nan(ind)  -nan(ind)  -nan(ind)  -nan(ind)  -nan(ind)  -nan(ind)
  L5-1                    1.00   -nan(ind)  -nan(ind)  -nan(ind)  -nan(ind)  -nan(ind)  -nan(ind)  -nan(ind)  -nan(ind)  -nan(ind)
  L5-1A                   1.00   -nan(ind)  -nan(ind)  -nan(ind)  -nan(ind)  -nan(ind)  -nan(ind)  -nan(ind)  -nan(ind)  -nan(ind)
  L6-0                    1.00   -nan(ind)  -nan(ind)  -nan(ind)  -nan(ind)  -nan(ind)  -nan(ind)  -nan(ind)  -nan(ind)  -nan(ind)
  L6-1                    1.00   -nan(ind)  -nan(ind)  -nan(ind)  -nan(ind)  -nan(ind)  -nan(ind)  -nan(ind)  -nan(ind)  -nan(ind)
  L6-2                    5.89   -nan(ind)  -nan(ind)  -nan(ind)  -nan(ind)  -nan(ind)  -nan(ind)  -nan(ind)  -nan(ind)  -nan(ind)
  L6-2A                   1.00   -nan(ind)  -nan(ind)  -nan(ind)  -nan(ind)  -nan(ind)  -nan(ind)  -nan(ind)  -nan(ind)  -nan(ind)
  L6-2B                   1.38   -nan(ind)  -nan(ind)  -nan(ind)  -nan(ind)  -nan(ind)  -nan(ind)  -nan(ind)  -nan(ind)  -nan(ind)
  L8-0                    1.00   -nan(ind)  -nan(ind)  -nan(ind)  -nan(ind)  -nan(ind)  -nan(ind)  -nan(ind)  -nan(ind)  -nan(ind)
  L8-1                    1.00   -nan(ind)  -nan(ind)  -nan(ind)  -nan(ind)  -nan(ind)  -nan(ind)  -nan(ind)  -nan(ind)  -nan(ind)
  L8-2                    5.93   -nan(ind)  -nan(ind)  -nan(ind)  -nan(ind)  -nan(ind)  -nan(ind)  -nan(ind)  -nan(ind)  -nan(ind)
  L8-2A                   1.04   -nan(ind)  -nan(ind)  -nan(ind)  -nan(ind)  -nan(ind)  -nan(ind)  -nan(ind)  -nan(ind)  -nan(ind)
  L8-3                    1.00   -nan(ind)  -nan(ind)  -nan(ind)  -nan(ind)  -nan(ind)  -nan(ind)  -nan(ind)  -nan(ind)  -nan(ind)
  L8-3A                   1.00   -nan(ind)  -nan(ind)  -nan(ind)  -nan(ind)  -nan(ind)  -nan(ind)  -nan(ind)  -nan(ind)  -nan(ind)
  L9-0                    1.00   -nan(ind)  -nan(ind)  -nan(ind)  -nan(ind)  -nan(ind)  -nan(ind)  -nan(ind)  -nan(ind)  -nan(ind)
  L9-1                    1.00   -nan(ind)  -nan(ind)  -nan(ind)  -nan(ind)  -nan(ind)  -nan(ind)  -nan(ind)  -nan(ind)  -nan(ind)
  L9-2                    1.00   -nan(ind)  -nan(ind)  -nan(ind)  -nan(ind)  -nan(ind)  -nan(ind)  -nan(ind)  -nan(ind)  -nan(ind)
  L9-2A                   1.50   -nan(ind)  -nan(ind)  -nan(ind)  -nan(ind)  -nan(ind)  -nan(ind)  -nan(ind)  -nan(ind)  -nan(ind)
  L9-2B                   2.26   -nan(ind)  -nan(ind)  -nan(ind)  -nan(ind)  -nan(ind)  -nan(ind)  -nan(ind)  -nan(ind)  -nan(ind)
  L9-3                    1.00   -nan(ind)  -nan(ind)  -nan(ind)  -nan(ind)  -nan(ind)  -nan(ind)  -nan(ind)  -nan(ind)  -nan(ind)
  L9-4                    1.00   -nan(ind)  -nan(ind)  -nan(ind)  -nan(ind)  -nan(ind)  -nan(ind)  -nan(ind)  -nan(ind)  -nan(ind)
  L9-5                    1.00   -nan(ind)  -nan(ind)  -nan(ind)  -nan(ind)  -nan(ind)  -nan(ind)  -nan(ind)  -nan(ind)  -nan(ind)
  NEW_CULVERT             3.73   -nan(ind)  -nan(ind)  -nan(ind)  -nan(ind)  -nan(ind)  -nan(ind)  -nan(ind)  -nan(ind)  -nan(ind)
  NEW_PIPE                1.00   -nan(ind)  -nan(ind)  -nan(ind)  -nan(ind)  -nan(ind)  -nan(ind)  -nan(ind)  -nan(ind)  -nan(ind)
  OVERLAND_1              1.00   -nan(ind)  -nan(ind)  -nan(ind)  -nan(ind)  -nan(ind)  -nan(ind)  -nan(ind)  -nan(ind)  -nan(ind)
  OVERLAND_10             1.00   -nan(ind)  -nan(ind)  -nan(ind)  -nan(ind)  -nan(ind)  -nan(ind)  -nan(ind)  -nan(ind)  -nan(ind)
  OVERLAND_100            1.00   -nan(ind)  -nan(ind)  -nan(ind)  -nan(ind)  -nan(ind)  -nan(ind)  -nan(ind)  -nan(ind)  -nan(ind)
  OVERLAND_101            1.59   -nan(ind)  -nan(ind)  -nan(ind)  -nan(ind)  -nan(ind)  -nan(ind)  -nan(ind)  -nan(ind)  -nan(ind)
  OVERLAND_11             1.00   -nan(ind)  -nan(ind)  -nan(ind)  -nan(ind)  -nan(ind)  -nan(ind)  -nan(ind)  -nan(ind)  -nan(ind)
  OVERLAND_12             1.00   -nan(ind)  -nan(ind)  -nan(ind)  -nan(ind)  -nan(ind)  -nan(ind)  -nan(ind)  -nan(ind)  -nan(ind)
  OVERLAND_13             1.00   -nan(ind)  -nan(ind)  -nan(ind)  -nan(ind)  -nan(ind)  -nan(ind)  -nan(ind)  -nan(ind)  -nan(ind)
  OVERLAND_14             1.00   -nan(ind)  -nan(ind)  -nan(ind)  -nan(ind)  -nan(ind)  -nan(ind)  -nan(ind)  -nan(ind)  -nan(ind)
  OVERLAND_15             1.00   -nan(ind)  -nan(ind)  -nan(ind)  -nan(ind)  -nan(ind)  -nan(ind)  -nan(ind)  -nan(ind)  -nan(ind)
  OVERLAND_16             1.00   -nan(ind)  -nan(ind)  -nan(ind)  -nan(ind)  -nan(ind)  -nan(ind)  -nan(ind)  -nan(ind)  -nan(ind)
  OVERLAND_17             1.00   -nan(ind)  -nan(ind)  -nan(ind)  -nan(ind)  -nan(ind)  -nan(ind)  -nan(ind)  -nan(ind)  -nan(ind)
  OVERLAND_18             1.00   -nan(ind)  -nan(ind)  -nan(ind)  -nan(ind)  -nan(ind)  -nan(ind)  -nan(ind)  -nan(ind)  -nan(ind)
  OVERLAND_19             1.00   -nan(ind)  -nan(ind)  -nan(ind)  -nan(ind)  -nan(ind)  -nan(ind)  -nan(ind)  -nan(ind)  -nan(ind)
  OVERLAND_2              1.00   -nan(ind)  -nan(ind)  -nan(ind)  -nan(ind)  -nan(ind)  -nan(ind)  -nan(ind)  -nan(ind)  -nan(ind)
  OVERLAND_20             1.00   -nan(ind)  -nan(ind)  -nan(ind)  -nan(ind)  -nan(ind)  -nan(ind)  -nan(ind)  -nan(ind)  -nan(ind)
  OVERLAND_21             1.57   -nan(ind)  -nan(ind)  -nan(ind)  -nan(ind)  -nan(ind)  -nan(ind)  -nan(ind)  -nan(ind)  -nan(ind)
  OVERLAND_22             1.00   -nan(ind)  -nan(ind)  -nan(ind)  -nan(ind)  -nan(ind)  -nan(ind)  -nan(ind)  -nan(ind)  -nan(ind)
  OVERLAND_23             1.21   -nan(ind)  -nan(ind)  -nan(ind)  -nan(ind)  -nan(ind)  -nan(ind)  -nan(ind)  -nan(ind)  -nan(ind)
  OVERLAND_25             1.00   -nan(ind)  -nan(ind)  -nan(ind)  -nan(ind)  -nan(ind)  -nan(ind)  -nan(ind)  -nan(ind)  -nan(ind)
  OVERLAND_26             1.00   -nan(ind)  -nan(ind)  -nan(ind)  -nan(ind)  -nan(ind)  -nan(ind)  -nan(ind)  -nan(ind)  -nan(ind)
  OVERLAND_27             1.00   -nan(ind)  -nan(ind)  -nan(ind)  -nan(ind)  -nan(ind)  -nan(ind)  -nan(ind)  -nan(ind)  -nan(ind)
  OVERLAND_28             1.00   -nan(ind)  -nan(ind)  -nan(ind)  -nan(ind)  -nan(ind)  -nan(ind)  -nan(ind)  -nan(ind)  -nan(ind)
  OVERLAND_2A             1.00   -nan(ind)  -nan(ind)  -nan(ind)  -nan(ind)  -nan(ind)  -nan(ind)  -nan(ind)  -nan(ind)  -nan(ind)
  OVERLAND_2B             1.00   -nan(ind)  -nan(ind)  -nan(ind)  -nan(ind)  -nan(ind)  -nan(ind)  -nan(ind)  -nan(ind)  -nan(ind)
  OVERLAND_2C             1.00   -nan(ind)  -nan(ind)  -nan(ind)  -nan(ind)  -nan(ind)  -nan(ind)  -nan(ind)  -nan(ind)  -nan(ind)
  OVERLAND_2D             1.00   -nan(ind)  -nan(ind)  -nan(ind)  -nan(ind)  -nan(ind)  -nan(ind)  -nan(ind)  -nan(ind)  -nan(ind)
  OVERLAND_3              1.00   -nan(ind)  -nan(ind)  -nan(ind)  -nan(ind)  -nan(ind)  -nan(ind)  -nan(ind)  -nan(ind)  -nan(ind)
  OVERLAND_30             1.00   -nan(ind)  -nan(ind)  -nan(ind)  -nan(ind)  -nan(ind)  -nan(ind)  -nan(ind)  -nan(ind)  -nan(ind)
  OVERLAND_33             1.00   -nan(ind)  -nan(ind)  -nan(ind)  -nan(ind)  -nan(ind)  -nan(ind)  -nan(ind)  -nan(ind)  -nan(ind)
  OVERLAND_34             1.00   -nan(ind)  -nan(ind)  -nan(ind)  -nan(ind)  -nan(ind)  -nan(ind)  -nan(ind)  -nan(ind)  -nan(ind)
  OVERLAND_35             1.00   -nan(ind)  -nan(ind)  -nan(ind)  -nan(ind)  -nan(ind)  -nan(ind)  -nan(ind)  -nan(ind)  -nan(ind)
  OVERLAND_36             1.00   -nan(ind)  -nan(ind)  -nan(ind)  -nan(ind)  -nan(ind)  -nan(ind)  -nan(ind)  -nan(ind)  -nan(ind)
  OVERLAND_3A             1.00   -nan(ind)  -nan(ind)  -nan(ind)  -nan(ind)  -nan(ind)  -nan(ind)  -nan(ind)  -nan(ind)  -nan(ind)
  OVERLAND_3B             1.00   -nan(ind)  -nan(ind)  -nan(ind)  -nan(ind)  -nan(ind)  -nan(ind)  -nan(ind)  -nan(ind)  -nan(ind)
  OVERLAND_3C             1.00   -nan(ind)  -nan(ind)  -nan(ind)  -nan(ind)  -nan(ind)  -nan(ind)  -nan(ind)  -nan(ind)  -nan(ind)
  OVERLAND_40             1.00   -nan(ind)  -nan(ind)  -nan(ind)  -nan(ind)  -nan(ind)  -nan(ind)  -nan(ind)  -nan(ind)  -nan(ind)
  OVERLAND_41             5.02   -nan(ind)  -nan(ind)  -nan(ind)  -nan(ind)  -nan(ind)  -nan(ind)  -nan(ind)  -nan(ind)  -nan(ind)
  OVERLAND_42             1.00   -nan(ind)  -nan(ind)  -nan(ind)  -nan(ind)  -nan(ind)  -nan(ind)  -nan(ind)  -nan(ind)  -nan(ind)
  OVERLAND_5              1.00   -nan(ind)  -nan(ind)  -nan(ind)  -nan(ind)  -nan(ind)  -nan(ind)  -nan(ind)  -nan(ind)  -nan(ind)
  OVERLAND_50             1.00   -nan(ind)  -nan(ind)  -nan(ind)  -nan(ind)  -nan(ind)  -nan(ind)  -nan(ind)  -nan(ind)  -nan(ind)
  OVERLAND_51             1.00   -nan(ind)  -nan(ind)  -nan(ind)  -nan(ind)  -nan(ind)  -nan(ind)  -nan(ind)  -nan(ind)  -nan(ind)
  OVERLAND_52             1.00   -nan(ind)  -nan(ind)  -nan(ind)  -nan(ind)  -nan(ind)  -nan(ind)  -nan(ind)  -nan(ind)  -nan(ind)
  OVERLAND_53             1.00   -nan(ind)  -nan(ind)  -nan(ind)  -nan(ind)  -nan(ind)  -nan(ind)  -nan(ind)  -nan(ind)  -nan(ind)
  OVERLAND_6              1.00   -nan(ind)  -nan(ind)  -nan(ind)  -nan(ind)  -nan(ind)  -nan(ind)  -nan(ind)  -nan(ind)  -nan(ind)
  OVERLAND_60             1.00   -nan(ind)  -nan(ind)  -nan(ind)  -nan(ind)  -nan(ind)  -nan(ind)  -nan(ind)  -nan(ind)  -nan(ind)
  OVERLAND_61             1.00   -nan(ind)  -nan(ind)  -nan(ind)  -nan(ind)  -nan(ind)  -nan(ind)  -nan(ind)  -nan(ind)  -nan(ind)
  OVERLAND_62             1.00   -nan(ind)  -nan(ind)  -nan(ind)  -nan(ind)  -nan(ind)  -nan(ind)  -nan(ind)  -nan(ind)  -nan(ind)
  OVERLAND_63             1.00   -nan(ind)  -nan(ind)  -nan(ind)  -nan(ind)  -nan(ind)  -nan(ind)  -nan(ind)  -nan(ind)  -nan(ind)
  OVERLAND_7              1.00   -nan(ind)  -nan(ind)  -nan(ind)  -nan(ind)  -nan(ind)  -nan(ind)  -nan(ind)  -nan(ind)  -nan(ind)
  OVERLAND_71             1.00   -nan(ind)  -nan(ind)  -nan(ind)  -nan(ind)  -nan(ind)  -nan(ind)  -nan(ind)  -nan(ind)  -nan(ind)
  OVERLAND_72             1.00   -nan(ind)  -nan(ind)  -nan(ind)  -nan(ind)  -nan(ind)  -nan(ind)  -nan(ind)  -nan(ind)  -nan(ind)
  OVERLAND_73             1.00   -nan(ind)  -nan(ind)  -nan(ind)  -nan(ind)  -nan(ind)  -nan(ind)  -nan(ind)  -nan(ind)  -nan(ind)
  OVERLAND_8              1.00   -nan(ind)  -nan(ind)  -nan(ind)  -nan(ind)  -nan(ind)  -nan(ind)  -nan(ind)  -nan(ind)  -nan(ind)
  OVERLAND_9              1.00   -nan(ind)  -nan(ind)  -nan(ind)  -nan(ind)  -nan(ind)  -nan(ind)  -nan(ind)  -nan(ind)  -nan(ind)
  RR_CROSSING             3.30   -nan(ind)  -nan(ind)  -nan(ind)  -nan(ind)  -nan(ind)  -nan(ind)  -nan(ind)  -nan(ind)  -nan(ind)
  
  
  *************************
  Conduit Surcharge Summary
  *************************
  
  No conduits were surcharged.
  

  Analysis begun on:  Sat Nov 30 08:10:35 2019
  Analysis ended on:  Sat Nov 30 08:10:35 2019
  Total elapsed time: < 1 sec