
  EPA STORM WATER MANAGEMENT MODEL - VERSION 5.1 (Build 5.1.013)
  --------------------------------------------------------------

  WARNING 08: elevation drop exceeds length for Conduit CDT-1658
  WARNING 08: elevation drop exceeds length for Conduit CDT-1662
  WARNING 04: minimum elevation drop used for Conduit CDT-1732
  WARNING 08: elevation drop exceeds length for Conduit CDT-1736
  WARNING 04: minimum elevation drop used for Conduit CDT-63
  WARNING 04: minimum elevation drop used for Conduit CDT-83
  WARNING 08: elevation drop exceeds length for Conduit FMCRERER
  WARNING 04: minimum elevation drop used for Conduit P210
  WARNING 04: minimum elevation drop used for Conduit P4
  WARNING 04: minimum elevation drop used for Conduit P781
  WARNING 04: minimum elevation drop used for Conduit U11
  WARNING 02: maximum depth increased for Node 0761080
  WARNING 02: maximum depth increased for Node 2320
  WARNING 02: maximum depth increased for Node 34002
  WARNING 02: maximum depth increased for Node 7114042
  WARNING 02: maximum depth increased for Node 7759010
  WARNING 02: maximum depth increased for Node JCT-1024
  WARNING 02: maximum depth increased for Node JCT-1034
  
  **********************           Volume        Volume
  Rainfall Dependent I/I        hectare-m      10^6 ltr
  **********************        ---------     ---------
  Sewershed Rainfall ......       639.032      6390.387
  RDII Produced ...........        27.198       271.984
  RDII Ratio ..............         0.043
  
  
  *********************************************************
  NOTE: The summary statistics displayed in this report are
  based on results found at every computational time step,  
  not just on results from each reporting time step.
  *********************************************************
  
  ****************
  Analysis Options
  ****************
  Flow Units ............... LPS
  Process Models:
    Rainfall/Runoff ........ YES
    RDII ................... YES
    Snowmelt ............... NO
    Groundwater ............ NO
    Flow Routing ........... YES
    Ponding Allowed ........ YES
    Water Quality .......... NO
  Infiltration Method ...... HORTON
  Flow Routing Method ...... DYNWAVE
  Surcharge Method ......... EXTRAN
  Starting Date ............ 06/30/2008 00:00:00
  Ending Date .............. 07/02/2008 23:55:00
  Antecedent Dry Days ...... 5.0
  Report Time Step ......... 00:05:00
  Wet Time Step ............ 00:05:00
  Dry Time Step ............ 00:05:00
  Routing Time Step ........ 10.00 sec
  Variable Time Step ....... YES
  Maximum Trials ........... 8
  Number of Threads ........ 1
  Head Tolerance ........... 0.001000 m
  
  
  *********************
  Control Actions Taken
  *********************

  
  **************************        Volume         Depth
  Runoff Quantity Continuity     hectare-m            mm
  **************************     ---------       -------
  Total Precipitation ......         0.000         0.000
  Evaporation Loss .........         0.000         0.000
  Infiltration Loss ........         0.000         0.000
  Surface Runoff ...........         0.000         0.000
  Final Storage ............         0.000         0.000
  Continuity Error (%) .....         0.000
  
  
  **************************        Volume        Volume
  Flow Routing Continuity        hectare-m      10^6 ltr
  **************************     ---------     ---------
  Dry Weather Inflow .......         0.000         0.000
  Wet Weather Inflow .......         0.000         0.000
  Groundwater Inflow .......         0.000         0.000
  RDII Inflow ..............         0.000         0.000
  External Inflow ..........         0.000         0.000
  External Outflow .........         0.000         0.000
  Flooding Loss ............         0.000         0.000
  Evaporation Loss .........         0.000         0.000
  Exfiltration Loss ........         0.000         0.000
  Initial Stored Volume ....         0.285         2.850
  Final Stored Volume ......         0.285         2.850
  Continuity Error (%) .....         0.000
  
  
  ***************************
  Time-Step Critical Elements
  ***************************
  None
  
  
  ********************************
  Highest Flow Instability Indexes
  ********************************
  All links are stable.
  
  
  ***************************
  Subcatchment Runoff Summary
  ***************************
  
  ------------------------------------------------------------------------------------------------------------------------------
                            Total      Total      Total      Total     Imperv       Perv      Total       Total     Peak  Runoff
                           Precip      Runon       Evap      Infil     Runoff     Runoff     Runoff      Runoff   Runoff   Coeff
  Subcatchment                 mm         mm         mm         mm         mm         mm         mm    10^6 ltr      LPS
  ------------------------------------------------------------------------------------------------------------------------------
  CCOL01                     0.00       0.00       0.00       0.00       0.00       0.00       0.00        0.00     0.00   0.000
  CCOL02                     0.00       0.00       0.00       0.00       0.00       0.00       0.00        0.00     0.00   0.000
  CCOL03                     0.00       0.00       0.00       0.00       0.00       0.00       0.00        0.00     0.00   0.000
  CCOL04                     0.00       0.00       0.00       0.00       0.00       0.00       0.00        0.00     0.00   0.000
  CCOL05                     0.00       0.00       0.00       0.00       0.00       0.00       0.00        0.00     0.00   0.000
  CCOL06                     0.00       0.00       0.00       0.00       0.00       0.00       0.00        0.00     0.00   0.000
  CCOL07                     0.00       0.00       0.00       0.00       0.00       0.00       0.00        0.00     0.00   0.000
  CENTERCOLLINGWOODSTORM       0.00       0.00       0.00       0.00       0.00       0.00       0.00        0.00     0.00   0.000
  CHBT01                     0.00       0.00       0.00       0.00       0.00       0.00       0.00        0.00     0.00   0.000
  CHBT02                     0.00       0.00       0.00       0.00       0.00       0.00       0.00        0.00     0.00   0.000
  CHBT03                     0.00       0.00       0.00       0.00       0.00       0.00       0.00        0.00     0.00   0.000
  CHRB01                     0.00       0.00       0.00       0.00       0.00       0.00       0.00        0.00     0.00   0.000
  CHRB02                     0.00       0.00       0.00       0.00       0.00       0.00       0.00        0.00     0.00   0.000
  CHRB03                     0.00       0.00       0.00       0.00       0.00       0.00       0.00        0.00     0.00   0.000
  CHRB04                     0.00       0.00       0.00       0.00       0.00       0.00       0.00        0.00     0.00   0.000
  CHRB05                     0.00       0.00       0.00       0.00       0.00       0.00       0.00        0.00     0.00   0.000
  CHRB06                     0.00       0.00       0.00       0.00       0.00       0.00       0.00        0.00     0.00   0.000
  CHRB07                     0.00       0.00       0.00       0.00       0.00       0.00       0.00        0.00     0.00   0.000
  CHRB08                     0.00       0.00       0.00       0.00       0.00       0.00       0.00        0.00     0.00   0.000
  CHRB09                     0.00       0.00       0.00       0.00       0.00       0.00       0.00        0.00     0.00   0.000
  CHRB10                     0.00       0.00       0.00       0.00       0.00       0.00       0.00        0.00     0.00   0.000
  CHRB11                     0.00       0.00       0.00       0.00       0.00       0.00       0.00        0.00     0.00   0.000
  CHRB12                     0.00       0.00       0.00       0.00       0.00       0.00       0.00        0.00     0.00   0.000
  CHRB13                     0.00       0.00       0.00       0.00       0.00       0.00       0.00        0.00     0.00   0.000
  CHRB14                     0.00       0.00       0.00       0.00       0.00       0.00       0.00        0.00     0.00   0.000
  CHRB15                     0.00       0.00       0.00       0.00       0.00       0.00       0.00        0.00     0.00   0.000
  CHRB16                     0.00       0.00       0.00       0.00       0.00       0.00       0.00        0.00     0.00   0.000
  CHRB17                     0.00       0.00       0.00       0.00       0.00       0.00       0.00        0.00     0.00   0.000
  CHRB18                     0.00       0.00       0.00       0.00       0.00       0.00       0.00        0.00     0.00   0.000
  CHRB19                     0.00       0.00       0.00       0.00       0.00       0.00       0.00        0.00     0.00   0.000
  CHRB20                     0.00       0.00       0.00       0.00       0.00       0.00       0.00        0.00     0.00   0.000
  CHRB21                     0.00       0.00       0.00       0.00       0.00       0.00       0.00        0.00     0.00   0.000
  CHRB22                     0.00       0.00       0.00       0.00       0.00       0.00       0.00        0.00     0.00   0.000
  CHRB23                     0.00       0.00       0.00       0.00       0.00       0.00       0.00        0.00     0.00   0.000
  CKNG01                     0.00       0.00       0.00       0.00       0.00       0.00       0.00        0.00     0.00   0.000
  CKNG02                     0.00       0.00       0.00       0.00       0.00       0.00       0.00        0.00     0.00   0.000
  CKNG03                     0.00       0.00       0.00       0.00       0.00       0.00       0.00        0.00     0.00   0.000
  CKNG04                     0.00       0.00       0.00       0.00       0.00       0.00       0.00        0.00     0.00   0.000
  CKNG05                     0.00       0.00       0.00       0.00       0.00       0.00       0.00        0.00     0.00   0.000
  CKNG06                     0.00       0.00       0.00       0.00       0.00       0.00       0.00        0.00     0.00   0.000
  CKNG07                     0.00       0.00       0.00       0.00       0.00       0.00       0.00        0.00     0.00   0.000
  CKNG08                     0.00       0.00       0.00       0.00       0.00       0.00       0.00        0.00     0.00   0.000
  CKNG09                     0.00       0.00       0.00       0.00       0.00       0.00       0.00        0.00     0.00   0.000
  CKNG10                     0.00       0.00       0.00       0.00       0.00       0.00       0.00        0.00     0.00   0.000
  CNEO01                     0.00       0.00       0.00       0.00       0.00       0.00       0.00        0.00     0.00   0.000
  CNEO02                     0.00       0.00       0.00       0.00       0.00       0.00       0.00        0.00     0.00   0.000
  CNEO03                     0.00       0.00       0.00       0.00       0.00       0.00       0.00        0.00     0.00   0.000
  CNEO04                     0.00       0.00       0.00       0.00       0.00       0.00       0.00        0.00     0.00   0.000
  CNEO05                     0.00       0.00       0.00       0.00       0.00       0.00       0.00        0.00     0.00   0.000
  CNEO06                     0.00       0.00       0.00       0.00       0.00       0.00       0.00        0.00     0.00   0.000
  CNEO07                     0.00       0.00       0.00       0.00       0.00       0.00       0.00        0.00     0.00   0.000
  CNEO08                     0.00       0.00       0.00       0.00       0.00       0.00       0.00        0.00     0.00   0.000
  CNEO09                     0.00       0.00       0.00       0.00       0.00       0.00       0.00        0.00     0.00   0.000
  CNEO10                     0.00       0.00       0.00       0.00       0.00       0.00       0.00        0.00     0.00   0.000
  CNEO11                     0.00       0.00       0.00       0.00       0.00       0.00       0.00        0.00     0.00   0.000
  CNEO12                     0.00       0.00       0.00       0.00       0.00       0.00       0.00        0.00     0.00   0.000
  CNET01                     0.00       0.00       0.00       0.00       0.00       0.00       0.00        0.00     0.00   0.000
  CNET02                     0.00       0.00       0.00       0.00       0.00       0.00       0.00        0.00     0.00   0.000
  CNET03                     0.00       0.00       0.00       0.00       0.00       0.00       0.00        0.00     0.00   0.000
  CNET04                     0.00       0.00       0.00       0.00       0.00       0.00       0.00        0.00     0.00   0.000
  CNET05                     0.00       0.00       0.00       0.00       0.00       0.00       0.00        0.00     0.00   0.000
  CNET06                     0.00       0.00       0.00       0.00       0.00       0.00       0.00        0.00     0.00   0.000
  CNET07                     0.00       0.00       0.00       0.00       0.00       0.00       0.00        0.00     0.00   0.000
  CNET08                     0.00       0.00       0.00       0.00       0.00       0.00       0.00        0.00     0.00   0.000
  CNET09                     0.00       0.00       0.00       0.00       0.00       0.00       0.00        0.00     0.00   0.000
  CNET10                     0.00       0.00       0.00       0.00       0.00       0.00       0.00        0.00     0.00   0.000
  CNET11                     0.00       0.00       0.00       0.00       0.00       0.00       0.00        0.00     0.00   0.000
  CNET12                     0.00       0.00       0.00       0.00       0.00       0.00       0.00        0.00     0.00   0.000
  CNET13                     0.00       0.00       0.00       0.00       0.00       0.00       0.00        0.00     0.00   0.000
  CNET14                     0.00       0.00       0.00       0.00       0.00       0.00       0.00        0.00     0.00   0.000
  CNET15                     0.00       0.00       0.00       0.00       0.00       0.00       0.00        0.00     0.00   0.000
  CNET16                     0.00       0.00       0.00       0.00       0.00       0.00       0.00        0.00     0.00   0.000
  CNET17                     0.00       0.00       0.00       0.00       0.00       0.00       0.00        0.00     0.00   0.000
  CNET18                     0.00       0.00       0.00       0.00       0.00       0.00       0.00        0.00     0.00   0.000
  CNET19                     0.00       0.00       0.00       0.00       0.00       0.00       0.00        0.00     0.00   0.000
  CNET20                     0.00       0.00       0.00       0.00       0.00       0.00       0.00        0.00     0.00   0.000
  COKL01                     0.00       0.00       0.00       0.00       0.00       0.00       0.00        0.00     0.00   0.000
  COKL02                     0.00       0.00       0.00       0.00       0.00       0.00       0.00        0.00     0.00   0.000
  COKL03                     0.00       0.00       0.00       0.00       0.00       0.00       0.00        0.00     0.00   0.000
  COKL04                     0.00       0.00       0.00       0.00       0.00       0.00       0.00        0.00     0.00   0.000
  COKL05                     0.00       0.00       0.00       0.00       0.00       0.00       0.00        0.00     0.00   0.000
  COKL06                     0.00       0.00       0.00       0.00       0.00       0.00       0.00        0.00     0.00   0.000
  COKL07                     0.00       0.00       0.00       0.00       0.00       0.00       0.00        0.00     0.00   0.000
  COKL08                     0.00       0.00       0.00       0.00       0.00       0.00       0.00        0.00     0.00   0.000
  COKL09                     0.00       0.00       0.00       0.00       0.00       0.00       0.00        0.00     0.00   0.000
  COKL10                     0.00       0.00       0.00       0.00       0.00       0.00       0.00        0.00     0.00   0.000
  COM_CCOL03                 0.00       0.00       0.00       0.00       0.00       0.00       0.00        0.00     0.00   0.000
  COM_CCOL04                 0.00       0.00       0.00       0.00       0.00       0.00       0.00        0.00     0.00   0.000
  COM_CCOL05                 0.00       0.00       0.00       0.00       0.00       0.00       0.00        0.00     0.00   0.000
  COM_CCOL06                 0.00       0.00       0.00       0.00       0.00       0.00       0.00        0.00     0.00   0.000
  COM_CCOL07                 0.00       0.00       0.00       0.00       0.00       0.00       0.00        0.00     0.00   0.000
  COM_CHBT01                 0.00       0.00       0.00       0.00       0.00       0.00       0.00        0.00     0.00   0.000
  COM_CHBT02                 0.00       0.00       0.00       0.00       0.00       0.00       0.00        0.00     0.00   0.000
  COM_CHBT02A                0.00       0.00       0.00       0.00       0.00       0.00       0.00        0.00     0.00   0.000
  COM_CHBT02B                0.00       0.00       0.00       0.00       0.00       0.00       0.00        0.00     0.00   0.000
  COM_CHBT03                 0.00       0.00       0.00       0.00       0.00       0.00       0.00        0.00     0.00   0.000
  COM_CHRB01                 0.00       0.00       0.00       0.00       0.00       0.00       0.00        0.00     0.00   0.000
  COM_CHRB02                 0.00       0.00       0.00       0.00       0.00       0.00       0.00        0.00     0.00   0.000
  COM_CHRB02B                0.00       0.00       0.00       0.00       0.00       0.00       0.00        0.00     0.00   0.000
  COM_CHRB03                 0.00       0.00       0.00       0.00       0.00       0.00       0.00        0.00     0.00   0.000
  COM_CHRB03B                0.00       0.00       0.00       0.00       0.00       0.00       0.00        0.00     0.00   0.000
  COM_CHRB03C                0.00       0.00       0.00       0.00       0.00       0.00       0.00        0.00     0.00   0.000
  COM_CHRB03D                0.00       0.00       0.00       0.00       0.00       0.00       0.00        0.00     0.00   0.000
  COM_CHRB05                 0.00       0.00       0.00       0.00       0.00       0.00       0.00        0.00     0.00   0.000
  COM_CHRB11                 0.00       0.00       0.00       0.00       0.00       0.00       0.00        0.00     0.00   0.000
  COM_CHRB12                 0.00       0.00       0.00       0.00       0.00       0.00       0.00        0.00     0.00   0.000
  COM_CHRB13                 0.00       0.00       0.00       0.00       0.00       0.00       0.00        0.00     0.00   0.000
  COM_CHRB14                 0.00       0.00       0.00       0.00       0.00       0.00       0.00        0.00     0.00   0.000
  COM_CHRB15                 0.00       0.00       0.00       0.00       0.00       0.00       0.00        0.00     0.00   0.000
  COM_CHRB16                 0.00       0.00       0.00       0.00       0.00       0.00       0.00        0.00     0.00   0.000
  COM_CHRB17                 0.00       0.00       0.00       0.00       0.00       0.00       0.00        0.00     0.00   0.000
  COM_CHRB18                 0.00       0.00       0.00       0.00       0.00       0.00       0.00        0.00     0.00   0.000
  COM_CHRB19                 0.00       0.00       0.00       0.00       0.00       0.00       0.00        0.00     0.00   0.000
  COM_CHRB20                 0.00       0.00       0.00       0.00       0.00       0.00       0.00        0.00     0.00   0.000
  COM_CHRB22                 0.00       0.00       0.00       0.00       0.00       0.00       0.00        0.00     0.00   0.000
  COM_CHRB23                 0.00       0.00       0.00       0.00       0.00       0.00       0.00        0.00     0.00   0.000
  COM_CNEO02A                0.00       0.00       0.00       0.00       0.00       0.00       0.00        0.00     0.00   0.000
  COM_CNEO02B                0.00       0.00       0.00       0.00       0.00       0.00       0.00        0.00     0.00   0.000
  COM_CNEO02C                0.00       0.00       0.00       0.00       0.00       0.00       0.00        0.00     0.00   0.000
  COM_COKL01                 0.00       0.00       0.00       0.00       0.00       0.00       0.00        0.00     0.00   0.000
  COM_COKL01B                0.00       0.00       0.00       0.00       0.00       0.00       0.00        0.00     0.00   0.000
  COM_COKL01C                0.00       0.00       0.00       0.00       0.00       0.00       0.00        0.00     0.00   0.000
  COM_COKL01D                0.00       0.00       0.00       0.00       0.00       0.00       0.00        0.00     0.00   0.000
  COM_COKL01E                0.00       0.00       0.00       0.00       0.00       0.00       0.00        0.00     0.00   0.000
  COM_COKL01F                0.00       0.00       0.00       0.00       0.00       0.00       0.00        0.00     0.00   0.000
  COM_COKL01G                0.00       0.00       0.00       0.00       0.00       0.00       0.00        0.00     0.00   0.000
  COM_COKL01H                0.00       0.00       0.00       0.00       0.00       0.00       0.00        0.00     0.00   0.000
  COM_COKL01I                0.00       0.00       0.00       0.00       0.00       0.00       0.00        0.00     0.00   0.000
  COM_COKL01J                0.00       0.00       0.00       0.00       0.00       0.00       0.00        0.00     0.00   0.000
  COM_COKL01L                0.00       0.00       0.00       0.00       0.00       0.00       0.00        0.00     0.00   0.000
  COM_COKL02                 0.00       0.00       0.00       0.00       0.00       0.00       0.00        0.00     0.00   0.000
  COM_COKL04                 0.00       0.00       0.00       0.00       0.00       0.00       0.00        0.00     0.00   0.000
  COM_COKL04B                0.00       0.00       0.00       0.00       0.00       0.00       0.00        0.00     0.00   0.000
  COM_COKL05                 0.00       0.00       0.00       0.00       0.00       0.00       0.00        0.00     0.00   0.000
  COM_COKL07                 0.00       0.00       0.00       0.00       0.00       0.00       0.00        0.00     0.00   0.000
  COM_COKL08                 0.00       0.00       0.00       0.00       0.00       0.00       0.00        0.00     0.00   0.000
  COM_COKL09                 0.00       0.00       0.00       0.00       0.00       0.00       0.00        0.00     0.00   0.000
  COM_COKL10                 0.00       0.00       0.00       0.00       0.00       0.00       0.00        0.00     0.00   0.000
  CONTROLNODECATCHMENT       0.00       0.00       0.00       0.00       0.00       0.00       0.00        0.00     0.00   0.000
  CPRS01                     0.00       0.00       0.00       0.00       0.00       0.00       0.00        0.00     0.00   0.000
  CPRS02                     0.00       0.00       0.00       0.00       0.00       0.00       0.00        0.00     0.00   0.000
  CPRS03                     0.00       0.00       0.00       0.00       0.00       0.00       0.00        0.00     0.00   0.000
  CPRS04                     0.00       0.00       0.00       0.00       0.00       0.00       0.00        0.00     0.00   0.000
  CPRS05                     0.00       0.00       0.00       0.00       0.00       0.00       0.00        0.00     0.00   0.000
  CPRS06                     0.00       0.00       0.00       0.00       0.00       0.00       0.00        0.00     0.00   0.000
  CRHT01                     0.00       0.00       0.00       0.00       0.00       0.00       0.00        0.00     0.00   0.000
  CRHT02                     0.00       0.00       0.00       0.00       0.00       0.00       0.00        0.00     0.00   0.000
  CRHT03                     0.00       0.00       0.00       0.00       0.00       0.00       0.00        0.00     0.00   0.000
  CRHT04                     0.00       0.00       0.00       0.00       0.00       0.00       0.00        0.00     0.00   0.000
  CRHT05                     0.00       0.00       0.00       0.00       0.00       0.00       0.00        0.00     0.00   0.000
  CRHT06                     0.00       0.00       0.00       0.00       0.00       0.00       0.00        0.00     0.00   0.000
  CRHT07                     0.00       0.00       0.00       0.00       0.00       0.00       0.00        0.00     0.00   0.000
  CYNG01                     0.00       0.00       0.00       0.00       0.00       0.00       0.00        0.00     0.00   0.000
  CYNG02                     0.00       0.00       0.00       0.00       0.00       0.00       0.00        0.00     0.00   0.000
  CYNG03                     0.00       0.00       0.00       0.00       0.00       0.00       0.00        0.00     0.00   0.000
  CYNG04                     0.00       0.00       0.00       0.00       0.00       0.00       0.00        0.00     0.00   0.000
  CYNG05                     0.00       0.00       0.00       0.00       0.00       0.00       0.00        0.00     0.00   0.000
  CYNG06                     0.00       0.00       0.00       0.00       0.00       0.00       0.00        0.00     0.00   0.000
  ECFB01                     0.00       0.00       0.00       0.00       0.00       0.00       0.00        0.00     0.00   0.000
  ECFB02                     0.00       0.00       0.00       0.00       0.00       0.00       0.00        0.00     0.00   0.000
  ECFB03                     0.00       0.00       0.00       0.00       0.00       0.00       0.00        0.00     0.00   0.000
  ECFB04                     0.00       0.00       0.00       0.00       0.00       0.00       0.00        0.00     0.00   0.000
  ECFB05                     0.00       0.00       0.00       0.00       0.00       0.00       0.00        0.00     0.00   0.000
  ECFB06                     0.00       0.00       0.00       0.00       0.00       0.00       0.00        0.00     0.00   0.000
  ECFB07                     0.00       0.00       0.00       0.00       0.00       0.00       0.00        0.00     0.00   0.000
  ECFB08                     0.00       0.00       0.00       0.00       0.00       0.00       0.00        0.00     0.00   0.000
  ECFB09                     0.00       0.00       0.00       0.00       0.00       0.00       0.00        0.00     0.00   0.000
  EH1501                     0.00       0.00       0.00       0.00       0.00       0.00       0.00        0.00     0.00   0.000
  EH1502                     0.00       0.00       0.00       0.00       0.00       0.00       0.00        0.00     0.00   0.000
  EH1503                     0.00       0.00       0.00       0.00       0.00       0.00       0.00        0.00     0.00   0.000
  EH1504                     0.00       0.00       0.00       0.00       0.00       0.00       0.00        0.00     0.00   0.000
  EH1505                     0.00       0.00       0.00       0.00       0.00       0.00       0.00        0.00     0.00   0.000
  EH1506                     0.00       0.00       0.00       0.00       0.00       0.00       0.00        0.00     0.00   0.000
  EH1507                     0.00       0.00       0.00       0.00       0.00       0.00       0.00        0.00     0.00   0.000
  EH1508                     0.00       0.00       0.00       0.00       0.00       0.00       0.00        0.00     0.00   0.000
  EH1509                     0.00       0.00       0.00       0.00       0.00       0.00       0.00        0.00     0.00   0.000
  EH1510                     0.00       0.00       0.00       0.00       0.00       0.00       0.00        0.00     0.00   0.000
  EH1511                     0.00       0.00       0.00       0.00       0.00       0.00       0.00        0.00     0.00   0.000
  EH1512                     0.00       0.00       0.00       0.00       0.00       0.00       0.00        0.00     0.00   0.000
  EH1513                     0.00       0.00       0.00       0.00       0.00       0.00       0.00        0.00     0.00   0.000
  WFNT01                     0.00       0.00       0.00       0.00       0.00       0.00       0.00        0.00     0.00   0.000
  WFNT02                     0.00       0.00       0.00       0.00       0.00       0.00       0.00        0.00     0.00   0.000
  WFNT04                     0.00       0.00       0.00       0.00       0.00       0.00       0.00        0.00     0.00   0.000
  WFNT05                     0.00       0.00       0.00       0.00       0.00       0.00       0.00        0.00     0.00   0.000
  WHM207                     0.00       0.00       0.00       0.00       0.00       0.00       0.00        0.00     0.00   0.000
  WHW201                     0.00       0.00       0.00       0.00       0.00       0.00       0.00        0.00     0.00   0.000
  WHW202                     0.00       0.00       0.00       0.00       0.00       0.00       0.00        0.00     0.00   0.000
  WHW203                     0.00       0.00       0.00       0.00       0.00       0.00       0.00        0.00     0.00   0.000
  WHW204                     0.00       0.00       0.00       0.00       0.00       0.00       0.00        0.00     0.00   0.000
  WHW205                     0.00       0.00       0.00       0.00       0.00       0.00       0.00        0.00     0.00   0.000
  WHW206                     0.00       0.00       0.00       0.00       0.00       0.00       0.00        0.00     0.00   0.000
  WHW207                     0.00       0.00       0.00       0.00       0.00       0.00       0.00        0.00     0.00   0.000
  WHW208                     0.00       0.00       0.00       0.00       0.00       0.00       0.00        0.00     0.00   0.000
  WHW209                     0.00       0.00       0.00       0.00       0.00       0.00       0.00        0.00     0.00   0.000
  WHW210                     0.00       0.00       0.00       0.00       0.00       0.00       0.00        0.00     0.00   0.000
  WHW211                     0.00       0.00       0.00       0.00       0.00       0.00       0.00        0.00     0.00   0.000
  WHW212                     0.00       0.00       0.00       0.00       0.00       0.00       0.00        0.00     0.00   0.000
  WHW213                     0.00       0.00       0.00       0.00       0.00       0.00       0.00        0.00     0.00   0.000
  WHW214                     0.00       0.00       0.00       0.00       0.00       0.00       0.00        0.00     0.00   0.000
  WMCE01                     0.00       0.00       0.00       0.00       0.00       0.00       0.00        0.00     0.00   0.000
  WMCE02                     0.00       0.00       0.00       0.00       0.00       0.00       0.00        0.00     0.00   0.000
  WMCE03                     0.00       0.00       0.00       0.00       0.00       0.00       0.00        0.00     0.00   0.000
  WMCE04                     0.00       0.00       0.00       0.00       0.00       0.00       0.00        0.00     0.00   0.000
  WMCE05                     0.00       0.00       0.00       0.00       0.00       0.00       0.00        0.00     0.00   0.000
  WMON01                     0.00       0.00       0.00       0.00       0.00       0.00       0.00        0.00     0.00   0.000
  WMON02                     0.00       0.00       0.00       0.00       0.00       0.00       0.00        0.00     0.00   0.000
  WMON03                     0.00       0.00       0.00       0.00       0.00       0.00       0.00        0.00     0.00   0.000
  WMON04                     0.00       0.00       0.00       0.00       0.00       0.00       0.00        0.00     0.00   0.000
  WMON05                     0.00       0.00       0.00       0.00       0.00       0.00       0.00        0.00     0.00   0.000
  WMON06                     0.00       0.00       0.00       0.00       0.00       0.00       0.00        0.00     0.00   0.000
  WMON07                     0.00       0.00       0.00       0.00       0.00       0.00       0.00        0.00     0.00   0.000
  WMON08                     0.00       0.00       0.00       0.00       0.00       0.00       0.00        0.00     0.00   0.000
  WMON09                     0.00       0.00       0.00       0.00       0.00       0.00       0.00        0.00     0.00   0.000
  WMON10                     0.00       0.00       0.00       0.00       0.00       0.00       0.00        0.00     0.00   0.000
  WMON11                     0.00       0.00       0.00       0.00       0.00       0.00       0.00        0.00     0.00   0.000
  WMON12                     0.00       0.00       0.00       0.00       0.00       0.00       0.00        0.00     0.00   0.000
  WMON13                     0.00       0.00       0.00       0.00       0.00       0.00       0.00        0.00     0.00   0.000
  WMON14                     0.00       0.00       0.00       0.00       0.00       0.00       0.00        0.00     0.00   0.000
  WMON15                     0.00       0.00       0.00       0.00       0.00       0.00       0.00        0.00     0.00   0.000
  WMON16                     0.00       0.00       0.00       0.00       0.00       0.00       0.00        0.00     0.00   0.000
  WMON17                     0.00       0.00       0.00       0.00       0.00       0.00       0.00        0.00     0.00   0.000
  WMON18                     0.00       0.00       0.00       0.00       0.00       0.00       0.00        0.00     0.00   0.000
  WMON19                     0.00       0.00       0.00       0.00       0.00       0.00       0.00        0.00     0.00   0.000
  WMON20                     0.00       0.00       0.00       0.00       0.00       0.00       0.00        0.00     0.00   0.000
  WMON21                     0.00       0.00       0.00       0.00       0.00       0.00       0.00        0.00     0.00   0.000
  WMON22                     0.00       0.00       0.00       0.00       0.00       0.00       0.00        0.00     0.00   0.000
  WMON23                     0.00       0.00       0.00       0.00       0.00       0.00       0.00        0.00     0.00   0.000
  WMON24                     0.00       0.00       0.00       0.00       0.00       0.00       0.00        0.00     0.00   0.000
  WMON25                     0.00       0.00       0.00       0.00       0.00       0.00       0.00        0.00     0.00   0.000
  WMON26                     0.00       0.00       0.00       0.00       0.00       0.00       0.00        0.00     0.00   0.000
  WMON27                     0.00       0.00       0.00       0.00       0.00       0.00       0.00        0.00     0.00   0.000
  WMON27A                    0.00       0.00       0.00       0.00       0.00       0.00       0.00        0.00     0.00   0.000
  WMON29                     0.00       0.00       0.00       0.00       0.00       0.00       0.00        0.00     0.00   0.000
  WNCC01                     0.00       0.00       0.00       0.00       0.00       0.00       0.00        0.00     0.00   0.000
  WNCC02                     0.00       0.00       0.00       0.00       0.00       0.00       0.00        0.00     0.00   0.000
  WNCC03                     0.00       0.00       0.00       0.00       0.00       0.00       0.00        0.00     0.00   0.000
  WNCC04                     0.00       0.00       0.00       0.00       0.00       0.00       0.00        0.00     0.00   0.000
  WNCC05                     0.00       0.00       0.00       0.00       0.00       0.00       0.00        0.00     0.00   0.000
  WNCC06                     0.00       0.00       0.00       0.00       0.00       0.00       0.00        0.00     0.00   0.000
  WNCC07                     0.00       0.00       0.00       0.00       0.00       0.00       0.00        0.00     0.00   0.000
  WNCC08                     0.00       0.00       0.00       0.00       0.00       0.00       0.00        0.00     0.00   0.000
  WNCC09                     0.00       0.00       0.00       0.00       0.00       0.00       0.00        0.00     0.00   0.000
  WNCC10                     0.00       0.00       0.00       0.00       0.00       0.00       0.00        0.00     0.00   0.000
  WNCC11                     0.00       0.00       0.00       0.00       0.00       0.00       0.00        0.00     0.00   0.000
  WNCC12                     0.00       0.00       0.00       0.00       0.00       0.00       0.00        0.00     0.00   0.000
  WNCC13                     0.00       0.00       0.00       0.00       0.00       0.00       0.00        0.00     0.00   0.000
  WNCC14                     0.00       0.00       0.00       0.00       0.00       0.00       0.00        0.00     0.00   0.000
  WNCC15                     0.00       0.00       0.00       0.00       0.00       0.00       0.00        0.00     0.00   0.000
  WNCC16                     0.00       0.00       0.00       0.00       0.00       0.00       0.00        0.00     0.00   0.000
  WNCC17                     0.00       0.00       0.00       0.00       0.00       0.00       0.00        0.00     0.00   0.000
  WNCC18                     0.00       0.00       0.00       0.00       0.00       0.00       0.00        0.00     0.00   0.000
  WNCC19                     0.00       0.00       0.00       0.00       0.00       0.00       0.00        0.00     0.00   0.000
  WNCC20                     0.00       0.00       0.00       0.00       0.00       0.00       0.00        0.00     0.00   0.000
  WNCC21                     0.00       0.00       0.00       0.00       0.00       0.00       0.00        0.00     0.00   0.000
  WNCC22                     0.00       0.00       0.00       0.00       0.00       0.00       0.00        0.00     0.00   0.000
  WNCC23                     0.00       0.00       0.00       0.00       0.00       0.00       0.00        0.00     0.00   0.000
  WNCC33                     0.00       0.00       0.00       0.00       0.00       0.00       0.00        0.00     0.00   0.000
  WNEC01                     0.00       0.00       0.00       0.00       0.00       0.00       0.00        0.00     0.00   0.000
  WNEC02                     0.00       0.00       0.00       0.00       0.00       0.00       0.00        0.00     0.00   0.000
  WNEC03                     0.00       0.00       0.00       0.00       0.00       0.00       0.00        0.00     0.00   0.000
  WNEC04                     0.00       0.00       0.00       0.00       0.00       0.00       0.00        0.00     0.00   0.000
  WNEC05                     0.00       0.00       0.00       0.00       0.00       0.00       0.00        0.00     0.00   0.000
  WNEC06                     0.00       0.00       0.00       0.00       0.00       0.00       0.00        0.00     0.00   0.000
  WNEC07                     0.00       0.00       0.00       0.00       0.00       0.00       0.00        0.00     0.00   0.000
  WNEC08                     0.00       0.00       0.00       0.00       0.00       0.00       0.00        0.00     0.00   0.000
  WNEC09                     0.00       0.00       0.00       0.00       0.00       0.00       0.00        0.00     0.00   0.000
  WNEC10                     0.00       0.00       0.00       0.00       0.00       0.00       0.00        0.00     0.00   0.000
  WNEC11                     0.00       0.00       0.00       0.00       0.00       0.00       0.00        0.00     0.00   0.000
  WNEC12                     0.00       0.00       0.00       0.00       0.00       0.00       0.00        0.00     0.00   0.000
  WNEC13                     0.00       0.00       0.00       0.00       0.00       0.00       0.00        0.00     0.00   0.000
  WNEC14                     0.00       0.00       0.00       0.00       0.00       0.00       0.00        0.00     0.00   0.000
  WNMC22                     0.00       0.00       0.00       0.00       0.00       0.00       0.00        0.00     0.00   0.000
  WNWC01                     0.00       0.00       0.00       0.00       0.00       0.00       0.00        0.00     0.00   0.000
  WNWC02                     0.00       0.00       0.00       0.00       0.00       0.00       0.00        0.00     0.00   0.000
  WNWC03                     0.00       0.00       0.00       0.00       0.00       0.00       0.00        0.00     0.00   0.000
  WNWC04                     0.00       0.00       0.00       0.00       0.00       0.00       0.00        0.00     0.00   0.000
  WNWC05                     0.00       0.00       0.00       0.00       0.00       0.00       0.00        0.00     0.00   0.000
  WNWC06                     0.00       0.00       0.00       0.00       0.00       0.00       0.00        0.00     0.00   0.000
  WNWC07                     0.00       0.00       0.00       0.00       0.00       0.00       0.00        0.00     0.00   0.000
  WNWC08                     0.00       0.00       0.00       0.00       0.00       0.00       0.00        0.00     0.00   0.000
  WNWC09                     0.00       0.00       0.00       0.00       0.00       0.00       0.00        0.00     0.00   0.000
  WNWC10                     0.00       0.00       0.00       0.00       0.00       0.00       0.00        0.00     0.00   0.000
  WNWC11                     0.00       0.00       0.00       0.00       0.00       0.00       0.00        0.00     0.00   0.000
  WNWC12                     0.00       0.00       0.00       0.00       0.00       0.00       0.00        0.00     0.00   0.000
  WNWC13                     0.00       0.00       0.00       0.00       0.00       0.00       0.00        0.00     0.00   0.000
  WNWC14                     0.00       0.00       0.00       0.00       0.00       0.00       0.00        0.00     0.00   0.000
  WNWC15                     0.00       0.00       0.00       0.00       0.00       0.00       0.00        0.00     0.00   0.000
  WNWC16                     0.00       0.00       0.00       0.00       0.00       0.00       0.00        0.00     0.00   0.000
  WNWC17                     0.00       0.00       0.00       0.00       0.00       0.00       0.00        0.00     0.00   0.000
  WNWC18                     0.00       0.00       0.00       0.00       0.00       0.00       0.00        0.00     0.00   0.000
  WNWC19                     0.00       0.00       0.00       0.00       0.00       0.00       0.00        0.00     0.00   0.000
  WNWC20                     0.00       0.00       0.00       0.00       0.00       0.00       0.00        0.00     0.00   0.000
  WNWC21                     0.00       0.00       0.00       0.00       0.00       0.00       0.00        0.00     0.00   0.000
  WNWC22                     0.00       0.00       0.00       0.00       0.00       0.00       0.00        0.00     0.00   0.000
  WNWC23                     0.00       0.00       0.00       0.00       0.00       0.00       0.00        0.00     0.00   0.000
  WWCC01                     0.00       0.00       0.00       0.00       0.00       0.00       0.00        0.00     0.00   0.000
  WWCC02                     0.00       0.00       0.00       0.00       0.00       0.00       0.00        0.00     0.00   0.000
  WWCC03                     0.00       0.00       0.00       0.00       0.00       0.00       0.00        0.00     0.00   0.000
  WWCC04                     0.00       0.00       0.00       0.00       0.00       0.00       0.00        0.00     0.00   0.000
  WWCC05                     0.00       0.00       0.00       0.00       0.00       0.00       0.00        0.00     0.00   0.000
  WWCC06                     0.00       0.00       0.00       0.00       0.00       0.00       0.00        0.00     0.00   0.000
  WWCC07                     0.00       0.00       0.00       0.00       0.00       0.00       0.00        0.00     0.00   0.000
  WWCC08                     0.00       0.00       0.00       0.00       0.00       0.00       0.00        0.00     0.00   0.000
  WWCC09                     0.00       0.00       0.00       0.00       0.00       0.00       0.00        0.00     0.00   0.000
  WWCC10                     0.00       0.00       0.00       0.00       0.00       0.00       0.00        0.00     0.00   0.000
  WWCC11                     0.00       0.00       0.00       0.00       0.00       0.00       0.00        0.00     0.00   0.000
  WWCC12                     0.00       0.00       0.00       0.00       0.00       0.00       0.00        0.00     0.00   0.000
  WWCC13                     0.00       0.00       0.00       0.00       0.00       0.00       0.00        0.00     0.00   0.000
  
  
  ******************
  Node Depth Summary
  ******************
  
  ---------------------------------------------------------------------------------
                                 Average  Maximum  Maximum  Time of Max    Reported
                                   Depth    Depth      HGL   Occurrence   Max Depth
  Node                 Type       Meters   Meters   Meters  days hr:min      Meters
  ---------------------------------------------------------------------------------
  0.329E050            JUNCTION  -nan(ind)     0.00    92.00     0  00:00        0.00
  0037110              JUNCTION  -nan(ind)     0.00    75.19     0  00:00        0.00
  0059E020             JUNCTION  -nan(ind)     0.00    75.50     0  00:00        0.00
  0073-010             JUNCTION  -nan(ind)     0.00    77.84     0  00:00        0.00
  0073E040             JUNCTION  -nan(ind)     0.00    77.88     0  00:00        0.00
  0107015              JUNCTION  -nan(ind)     0.00    82.60     0  00:00        0.00
  0216010              JUNCTION  -nan(ind)     0.00    91.35     0  00:00        0.00
  0216100              JUNCTION  -nan(ind)     0.00    91.30     0  00:00        0.00
  0302020              JUNCTION  -nan(ind)     0.00   110.65     0  00:00        0.00
  0362010              JUNCTION  -nan(ind)     0.00   109.80     0  00:00        0.00
  0362030              JUNCTION  -nan(ind)     0.00   111.80     0  00:00        0.00
  0362040              JUNCTION  -nan(ind)     0.00   112.10     0  00:00        0.00
  0362050              JUNCTION  -nan(ind)     0.00   112.40     0  00:00        0.00
  0362060              JUNCTION  -nan(ind)     0.00   112.80     0  00:00        0.00
  0363005              JUNCTION  -nan(ind)     0.00   112.90     0  00:00        0.00
  0363010              JUNCTION  -nan(ind)     0.00   113.10     0  00:00        0.00
  0363020              JUNCTION  -nan(ind)     0.00   113.39     0  00:00        0.00
  0363030              JUNCTION  -nan(ind)     0.00   113.71     0  00:00        0.00
  0363040              JUNCTION  -nan(ind)     0.00   113.93     0  00:00        0.00
  0363050              JUNCTION  -nan(ind)     0.00   114.26     0  00:00        0.00
  0364010              JUNCTION  -nan(ind)     0.00   114.55     0  00:00        0.00
  0364020              JUNCTION  -nan(ind)     0.00   114.75     0  00:00        0.00
  0364030              JUNCTION  -nan(ind)     0.00   115.01     0  00:00        0.00
  0364040              JUNCTION  -nan(ind)     0.00   115.22     0  00:00        0.00
  0364050              JUNCTION  -nan(ind)     0.00   115.47     0  00:00        0.00
  0423-010             JUNCTION  -nan(ind)     0.00   101.75     0  00:00        0.00
  0505010              JUNCTION  -nan(ind)     0.00    83.95     0  00:00        0.00
  0513010              JUNCTION  -nan(ind)     0.00    76.71     0  00:00        0.00
  0761080              JUNCTION  -nan(ind)     0.00    71.54     0  00:00        0.00
  0795                 JUNCTION  -nan(ind)     0.00    75.48     0  00:00        0.00
  07951                JUNCTION  -nan(ind)     0.00    75.48     0  00:00        0.00
  0812010              JUNCTION  -nan(ind)     0.00    93.96     0  00:00        0.00
  0812E020             JUNCTION  -nan(ind)     0.00    94.32     0  00:00        0.00
  0812E030             JUNCTION  -nan(ind)     0.00    94.47     0  00:00        0.00
  0840040              JUNCTION  -nan(ind)     0.00   104.90     0  00:00        0.00
  0842035              JUNCTION  -nan(ind)     0.00   108.20     0  00:00        0.00
  0842210              JUNCTION  -nan(ind)     0.00   108.74     0  00:00        0.00
  0842220              JUNCTION  -nan(ind)     0.00   108.86     0  00:00        0.00
  0842230              JUNCTION  -nan(ind)     0.00   108.99     0  00:00        0.00
  0842240              JUNCTION  -nan(ind)     0.00   109.11     0  00:00        0.00
  0842250              JUNCTION  -nan(ind)     0.00   109.33     0  00:00        0.00
  0846010              JUNCTION  -nan(ind)     0.00   104.82     0  00:00        0.00
  0848010              JUNCTION  -nan(ind)     0.00   105.23     0  00:00        0.00
  0848020              JUNCTION  -nan(ind)     0.00   105.62     0  00:00        0.00
  0848030              JUNCTION  -nan(ind)     0.00   105.82     0  00:00        0.00
  0850-030             JUNCTION  -nan(ind)     0.00    95.51     0  00:00        0.00
  0850-040             JUNCTION  -nan(ind)     0.00    98.52     0  00:00        0.00
  0850-050             JUNCTION  -nan(ind)     0.00   101.51     0  00:00        0.00
  0850020              JUNCTION  -nan(ind)     0.00    92.93     0  00:00        0.00
  0852-010             JUNCTION  -nan(ind)     0.00    89.89     0  00:00        0.00
  1010                 JUNCTION  -nan(ind)     0.00    72.96     0  00:00        0.00
  11110010             JUNCTION  -nan(ind)     0.00    90.37     0  00:00        0.00
  11110021             JUNCTION  -nan(ind)     0.00    93.25     0  00:00        0.00
  11110031             JUNCTION  -nan(ind)     0.00    97.06     0  00:00        0.00
  11121010             JUNCTION  -nan(ind)     0.00    99.35     0  00:00        0.00
  11122010             JUNCTION  -nan(ind)     0.00    98.94     0  00:00        0.00
  11245011             JUNCTION  -nan(ind)     0.00    97.75     0  00:00        0.00
  11246-010            JUNCTION  -nan(ind)     0.00    99.58     0  00:00        0.00
  11246-020            JUNCTION  -nan(ind)     0.00   100.13     0  00:00        0.00
  11246-030            JUNCTION  -nan(ind)     0.00   102.16     0  00:00        0.00
  11282010             JUNCTION  -nan(ind)     0.00    88.01     0  00:00        0.00
  11282021             JUNCTION  -nan(ind)     0.00    88.81     0  00:00        0.00
  11282031             JUNCTION  -nan(ind)     0.00    89.42     0  00:00        0.00
  11282041             JUNCTION  -nan(ind)     0.00    89.93     0  00:00        0.00
  12007012             JUNCTION  -nan(ind)     0.00    86.40     0  00:00        0.00
  12010010             JUNCTION  -nan(ind)     0.00   102.93     0  00:00        0.00
  12035020             JUNCTION  -nan(ind)     0.00    73.18     0  00:00        0.00
  12051010             JUNCTION  -nan(ind)     0.00   102.29     0  00:00        0.00
  12051020             JUNCTION  -nan(ind)     0.00   102.61     0  00:00        0.00
  13265030             JUNCTION  -nan(ind)     0.00    79.92     0  00:00        0.00
  13266010             JUNCTION  -nan(ind)     0.00    80.34     0  00:00        0.00
  13266020             JUNCTION  -nan(ind)     0.00    80.89     0  00:00        0.00
  13266030             JUNCTION  -nan(ind)     0.00    82.03     0  00:00        0.00
  13266041             JUNCTION  -nan(ind)     0.00    82.67     0  00:00        0.00
  13266051             JUNCTION  -nan(ind)     0.00    83.16     0  00:00        0.00
  13266061             JUNCTION  -nan(ind)     0.00    83.77     0  00:00        0.00
  13266071             JUNCTION  -nan(ind)     0.00    84.41     0  00:00        0.00
  13266081             JUNCTION  -nan(ind)     0.00    84.64     0  00:00        0.00
  13266091             JUNCTION  -nan(ind)     0.00    85.33     0  00:00        0.00
  13266101             JUNCTION  -nan(ind)     0.00    85.98     0  00:00        0.00
  13266111             JUNCTION  -nan(ind)     0.00    86.57     0  00:00        0.00
  13266121             JUNCTION  -nan(ind)     0.00    87.50     0  00:00        0.00
  1344                 JUNCTION  -nan(ind)     0.00    76.05     0  00:00        0.00
  1345                 JUNCTION  -nan(ind)     0.00    75.39     0  00:00        0.00
  1346                 JUNCTION  -nan(ind)     0.00    74.91     0  00:00        0.00
  1347                 JUNCTION  -nan(ind)     0.00    81.33     0  00:00        0.00
  1348                 JUNCTION  -nan(ind)     0.00    80.93     0  00:00        0.00
  1721040              JUNCTION  -nan(ind)     0.00    80.21     0  00:00        0.00
  1721050              JUNCTION  -nan(ind)     0.00    80.22     0  00:00        0.00
  1721060              JUNCTION  -nan(ind)     0.00    80.86     0  00:00        0.00
  1721070              JUNCTION  -nan(ind)     0.00    82.22     0  00:00        0.00
  1721E010             JUNCTION  -nan(ind)     0.00    78.00     0  00:00        0.00
  1721E020             JUNCTION  -nan(ind)     0.00    78.76     0  00:00        0.00
  1721E030             JUNCTION  -nan(ind)     0.00    79.49     0  00:00        0.00
  1721E080             JUNCTION  -nan(ind)     0.00    82.84     0  00:00        0.00
  1721E090             JUNCTION  -nan(ind)     0.00    83.31     0  00:00        0.00
  1721E100             JUNCTION  -nan(ind)     0.00    83.73     0  00:00        0.00
  1760020              JUNCTION  -nan(ind)     0.00    71.76     0  00:00        0.00
  1760030              JUNCTION  -nan(ind)     0.00    71.83     0  00:00        0.00
  1762010              JUNCTION  -nan(ind)     0.00    72.09     0  00:00        0.00
  1762020              JUNCTION  -nan(ind)     0.00    72.13     0  00:00        0.00
  1762030              JUNCTION  -nan(ind)     0.00    72.18     0  00:00        0.00
  2010                 JUNCTION  -nan(ind)     0.00    72.90     0  00:00        0.00
  2140010              JUNCTION  -nan(ind)     0.00    75.15     0  00:00        0.00
  2140020              JUNCTION  -nan(ind)     0.00    75.33     0  00:00        0.00
  2237010              JUNCTION  -nan(ind)     0.00    76.39     0  00:00        0.00
  2284010              JUNCTION  -nan(ind)     0.00    74.03     0  00:00        0.00
  2284020              JUNCTION  -nan(ind)     0.00    74.20     0  00:00        0.00
  2284030              JUNCTION  -nan(ind)     0.00    74.22     0  00:00        0.00
  2284040              JUNCTION  -nan(ind)     0.00    74.42     0  00:00        0.00
  2284050              JUNCTION  -nan(ind)     0.00    74.42     0  00:00        0.00
  2284060              JUNCTION  -nan(ind)     0.00    74.56     0  00:00        0.00
  2284070              JUNCTION  -nan(ind)     0.00    74.57     0  00:00        0.00
  2284080              JUNCTION  -nan(ind)     0.00    74.63     0  00:00        0.00
  2284091              JUNCTION  -nan(ind)     0.00    74.60     0  00:00        0.00
  2284101              JUNCTION  -nan(ind)     0.00    74.37     0  00:00        0.00
  2284111              JUNCTION  -nan(ind)     0.00    74.73     0  00:00        0.00
  2284121              JUNCTION  -nan(ind)     0.00    74.73     0  00:00        0.00
  2284131              JUNCTION  -nan(ind)     0.00    74.73     0  00:00        0.00
  2284141              JUNCTION  -nan(ind)     0.00    74.94     0  00:00        0.00
  2284151              JUNCTION  -nan(ind)     0.00    75.00     0  00:00        0.00
  2284310              JUNCTION  -nan(ind)     0.00    74.08     0  00:00        0.00
  2284320              JUNCTION  -nan(ind)     0.00    74.30     0  00:00        0.00
  2284330              JUNCTION  -nan(ind)     0.00    74.40     0  00:00        0.00
  2284341              JUNCTION  -nan(ind)     0.00    74.57     0  00:00        0.00
  2284351              JUNCTION  -nan(ind)     0.00    74.61     0  00:00        0.00
  2285010              JUNCTION  -nan(ind)     0.00    73.84     0  00:00        0.00
  2285020              JUNCTION  -nan(ind)     0.00    73.91     0  00:00        0.00
  2285030              JUNCTION  -nan(ind)     0.00    73.99     0  00:00        0.00
  231010               JUNCTION  -nan(ind)     0.00    95.99     0  00:00        0.00
  231020               JUNCTION  -nan(ind)     0.00    96.51     0  00:00        0.00
  231030               JUNCTION  -nan(ind)     0.00    96.70     0  00:00        0.00
  2319                 JUNCTION  -nan(ind)     0.00    74.69     0  00:00        0.00
  2320                 JUNCTION  -nan(ind)     0.00    72.22     0  00:00        0.00
  232010               JUNCTION  -nan(ind)     0.00    97.03     0  00:00        0.00
  2324                 JUNCTION  -nan(ind)     0.00    73.60     0  00:00        0.00
  233011               JUNCTION  -nan(ind)     0.00    76.31     0  00:00        0.00
  2588                 JUNCTION  -nan(ind)     0.00    77.69     0  00:00        0.00
  2757010              JUNCTION  -nan(ind)     0.00    75.80     0  00:00        0.00
  3038010              JUNCTION  -nan(ind)     0.00    94.80     0  00:00        0.00
  3038020              JUNCTION  -nan(ind)     0.00    95.89     0  00:00        0.00
  3039010              JUNCTION  -nan(ind)     0.00    92.39     0  00:00        0.00
  31068011             JUNCTION  -nan(ind)     0.00    73.75     0  00:00        0.00
  31076010             JUNCTION  -nan(ind)     0.00    73.75     0  00:00        0.00
  31084-050            JUNCTION  -nan(ind)     0.00    75.37     0  00:00        0.00
  31084-060            JUNCTION  -nan(ind)     0.00    75.73     0  00:00        0.00
  31084E-020           JUNCTION  -nan(ind)     0.00    74.59     0  00:00        0.00
  31084E-030           JUNCTION  -nan(ind)     0.00    74.80     0  00:00        0.00
  31084E-040           JUNCTION  -nan(ind)     0.00    74.96     0  00:00        0.00
  31084E010            JUNCTION  -nan(ind)     0.00    74.19     0  00:00        0.00
  31086-010            JUNCTION  -nan(ind)     0.00    76.81     0  00:00        0.00
  31087-010            JUNCTION  -nan(ind)     0.00    77.32     0  00:00        0.00
  31087-020            JUNCTION  -nan(ind)     0.00    77.74     0  00:00        0.00
  31111010             JUNCTION  -nan(ind)     0.00    75.81     0  00:00        0.00
  31261-010            JUNCTION  -nan(ind)     0.00    78.21     0  00:00        0.00
  31262-010            JUNCTION  -nan(ind)     0.00    78.55     0  00:00        0.00
  31262-020            JUNCTION  -nan(ind)     0.00    79.09     0  00:00        0.00
  31262-030            JUNCTION  -nan(ind)     0.00    79.46     0  00:00        0.00
  31262-040            JUNCTION  -nan(ind)     0.00    79.54     0  00:00        0.00
  31273-010            JUNCTION  -nan(ind)     0.00    80.24     0  00:00        0.00
  31273E-020           JUNCTION  -nan(ind)     0.00    80.33     0  00:00        0.00
  31325010             JUNCTION  -nan(ind)     0.00    75.52     0  00:00        0.00
  31325020             JUNCTION  -nan(ind)     0.00    75.77     0  00:00        0.00
  31325030             JUNCTION  -nan(ind)     0.00    76.39     0  00:00        0.00
  31325040             JUNCTION  -nan(ind)     0.00    76.70     0  00:00        0.00
  31327006             JUNCTION  -nan(ind)     0.00    77.31     0  00:00        0.00
  31327010             JUNCTION  -nan(ind)     0.00    77.57     0  00:00        0.00
  31327020             JUNCTION  -nan(ind)     0.00    78.04     0  00:00        0.00
  31327030             JUNCTION  -nan(ind)     0.00    78.67     0  00:00        0.00
  31337011             JUNCTION  -nan(ind)     0.00    77.18     0  00:00        0.00
  31337021             JUNCTION  -nan(ind)     0.00    77.46     0  00:00        0.00
  31337030             JUNCTION  -nan(ind)     0.00    77.71     0  00:00        0.00
  31337050             JUNCTION  -nan(ind)     0.00    77.83     0  00:00        0.00
  31445010             JUNCTION  -nan(ind)     0.00    78.19     0  00:00        0.00
  31445020             JUNCTION  -nan(ind)     0.00    79.33     0  00:00        0.00
  31445030             JUNCTION  -nan(ind)     0.00    79.53     0  00:00        0.00
  31445040             JUNCTION  -nan(ind)     0.00    79.64     0  00:00        0.00
  31445050             JUNCTION  -nan(ind)     0.00    79.80     0  00:00        0.00
  31445061             JUNCTION  -nan(ind)     0.00    79.97     0  00:00        0.00
  31445071             JUNCTION  -nan(ind)     0.00    80.08     0  00:00        0.00
  31445081             JUNCTION  -nan(ind)     0.00    80.13     0  00:00        0.00
  3151010              JUNCTION  -nan(ind)     0.00    74.06     0  00:00        0.00
  3151020              JUNCTION  -nan(ind)     0.00    74.55     0  00:00        0.00
  3151030              JUNCTION  -nan(ind)     0.00    74.76     0  00:00        0.00
  32                   JUNCTION  -nan(ind)     0.00    85.71     0  00:00        0.00
  3201-020             JUNCTION  -nan(ind)     0.00    76.17     0  00:00        0.00
  3201010              JUNCTION  -nan(ind)     0.00    75.88     0  00:00        0.00
  3202010              JUNCTION  -nan(ind)     0.00    75.65     0  00:00        0.00
  3202020              JUNCTION  -nan(ind)     0.00    75.78     0  00:00        0.00
  3203010              JUNCTION  -nan(ind)     0.00    75.51     0  00:00        0.00
  3204010              JUNCTION  -nan(ind)     0.00    75.02     0  00:00        0.00
  3204020              JUNCTION  -nan(ind)     0.00    75.23     0  00:00        0.00
  3206010              JUNCTION  -nan(ind)     0.00    74.83     0  00:00        0.00
  3206020              JUNCTION  -nan(ind)     0.00    78.13     0  00:00        0.00
  3208010              JUNCTION  -nan(ind)     0.00    78.99     0  00:00        0.00
  3208020              JUNCTION  -nan(ind)     0.00    79.94     0  00:00        0.00
  3209010              JUNCTION  -nan(ind)     0.00    82.24     0  00:00        0.00
  3209012              JUNCTION  -nan(ind)     0.00    82.44     0  00:00        0.00
  3209020              JUNCTION  -nan(ind)     0.00    84.09     0  00:00        0.00
  3210010              JUNCTION  -nan(ind)     0.00    86.03     0  00:00        0.00
  3211010              JUNCTION  -nan(ind)     0.00    87.28     0  00:00        0.00
  3212010              JUNCTION  -nan(ind)     0.00    88.55     0  00:00        0.00
  3213010              JUNCTION  -nan(ind)     0.00    89.79     0  00:00        0.00
  3214010              JUNCTION  -nan(ind)     0.00    90.47     0  00:00        0.00
  32149010             JUNCTION  -nan(ind)     0.00    72.68     0  00:00        0.00
  32149021             JUNCTION  -nan(ind)     0.00    72.77     0  00:00        0.00
  32149031             JUNCTION  -nan(ind)     0.00    72.81     0  00:00        0.00
  32149041             JUNCTION  -nan(ind)     0.00    72.81     0  00:00        0.00
  32149151             JUNCTION  -nan(ind)     0.00    72.94     0  00:00        0.00
  32149161             JUNCTION  -nan(ind)     0.00    72.95     0  00:00        0.00
  32149171             JUNCTION  -nan(ind)     0.00    73.23     0  00:00        0.00
  32173010             JUNCTION  -nan(ind)     0.00    73.42     0  00:00        0.00
  32173020             JUNCTION  -nan(ind)     0.00    73.47     0  00:00        0.00
  32173030             JUNCTION  -nan(ind)     0.00    73.57     0  00:00        0.00
  32173041             JUNCTION  -nan(ind)     0.00    73.61     0  00:00        0.00
  32173051             JUNCTION  -nan(ind)     0.00    73.73     0  00:00        0.00
  32173061             JUNCTION  -nan(ind)     0.00    73.78     0  00:00        0.00
  32173067             JUNCTION  -nan(ind)     0.00    73.84     0  00:00        0.00
  32173071             JUNCTION  -nan(ind)     0.00    73.87     0  00:00        0.00
  32173081             JUNCTION  -nan(ind)     0.00    74.24     0  00:00        0.00
  329010               JUNCTION  -nan(ind)     0.00    91.03     0  00:00        0.00
  330021               JUNCTION  -nan(ind)     0.00    74.50     0  00:00        0.00
  33005010             JUNCTION  -nan(ind)     0.00    80.83     0  00:00        0.00
  33005110             JUNCTION  -nan(ind)     0.00    81.40     0  00:00        0.00
  33010                JUNCTION  -nan(ind)     0.00    73.82     0  00:00        0.00
  330135E040           JUNCTION  -nan(ind)     0.00    88.68     0  00:00        0.00
  33020                JUNCTION  -nan(ind)     0.00    74.54     0  00:00        0.00
  33022011             JUNCTION  -nan(ind)     0.00    81.70     0  00:00        0.00
  33022021             JUNCTION  -nan(ind)     0.00    81.93     0  00:00        0.00
  33022031             JUNCTION  -nan(ind)     0.00    82.24     0  00:00        0.00
  33022040             JUNCTION  -nan(ind)     0.00    82.51     0  00:00        0.00
  33024010             JUNCTION  -nan(ind)     0.00    82.70     0  00:00        0.00
  33024020             JUNCTION  -nan(ind)     0.00    82.73     0  00:00        0.00
  33026010             JUNCTION  -nan(ind)     0.00    82.99     0  00:00        0.00
  33026020             JUNCTION  -nan(ind)     0.00    83.18     0  00:00        0.00
  33026030             JUNCTION  -nan(ind)     0.00    83.41     0  00:00        0.00
  33026041             JUNCTION  -nan(ind)     0.00    83.54     0  00:00        0.00
  33026051             JUNCTION  -nan(ind)     0.00    83.78     0  00:00        0.00
  33030                JUNCTION  -nan(ind)     0.00    74.82     0  00:00        0.00
  33040                JUNCTION  -nan(ind)     0.00    75.01     0  00:00        0.00
  3307010              JUNCTION  -nan(ind)     0.00    96.77     0  00:00        0.00
  33089010             JUNCTION  -nan(ind)     0.00   103.42     0  00:00        0.00
  33104010             JUNCTION  -nan(ind)     0.00    76.88     0  00:00        0.00
  33104020             JUNCTION  -nan(ind)     0.00    78.73     0  00:00        0.00
  33104030             JUNCTION  -nan(ind)     0.00    81.22     0  00:00        0.00
  33117010             JUNCTION  -nan(ind)     0.00    76.61     0  00:00        0.00
  3311E020             JUNCTION  -nan(ind)     0.00    99.66     0  00:00        0.00
  33125010             JUNCTION  -nan(ind)     0.00    76.79     0  00:00        0.00
  33135010             JUNCTION  -nan(ind)     0.00    86.90     0  00:00        0.00
  33135020             JUNCTION  -nan(ind)     0.00    87.93     0  00:00        0.00
  33135030             JUNCTION  -nan(ind)     0.00    88.16     0  00:00        0.00
  33136010             JUNCTION  -nan(ind)     0.00    89.63     0  00:00        0.00
  33136020             JUNCTION  -nan(ind)     0.00    92.66     0  00:00        0.00
  33136030             JUNCTION  -nan(ind)     0.00    94.68     0  00:00        0.00
  33204010             JUNCTION  -nan(ind)     0.00    86.48     0  00:00        0.00
  33206020             JUNCTION  -nan(ind)     0.00    95.26     0  00:00        0.00
  33212011             JUNCTION  -nan(ind)     0.00    82.81     0  00:00        0.00
  33212021             JUNCTION  -nan(ind)     0.00    83.02     0  00:00        0.00
  33240010             JUNCTION  -nan(ind)     0.00    84.04     0  00:00        0.00
  33240020             JUNCTION  -nan(ind)     0.00    84.72     0  00:00        0.00
  33242010             JUNCTION  -nan(ind)     0.00    85.11     0  00:00        0.00
  33242020             JUNCTION  -nan(ind)     0.00    85.39     0  00:00        0.00
  33243010             JUNCTION  -nan(ind)     0.00    85.56     0  00:00        0.00
  33275010             JUNCTION  -nan(ind)     0.00    96.80     0  00:00        0.00
  33275020             JUNCTION  -nan(ind)     0.00    97.19     0  00:00        0.00
  33276010             JUNCTION  -nan(ind)     0.00    96.07     0  00:00        0.00
  33306006             JUNCTION  -nan(ind)     0.00    89.47     0  00:00        0.00
  33306010             JUNCTION  -nan(ind)     0.00    89.99     0  00:00        0.00
  33307010             JUNCTION  -nan(ind)     0.00    90.48     0  00:00        0.00
  33307020             JUNCTION  -nan(ind)     0.00    92.12     0  00:00        0.00
  33308010             JUNCTION  -nan(ind)     0.00    92.34     0  00:00        0.00
  33308020             JUNCTION  -nan(ind)     0.00    92.50     0  00:00        0.00
  33308030             JUNCTION  -nan(ind)     0.00    92.65     0  00:00        0.00
  33309010             JUNCTION  -nan(ind)     0.00    92.68     0  00:00        0.00
  33309020             JUNCTION  -nan(ind)     0.00    92.96     0  00:00        0.00
  33309030             JUNCTION  -nan(ind)     0.00    93.07     0  00:00        0.00
  33310010             JUNCTION  -nan(ind)     0.00    93.19     0  00:00        0.00
  33383020             JUNCTION  -nan(ind)     0.00    72.14     0  00:00        0.00
  33383030             JUNCTION  -nan(ind)     0.00    72.27     0  00:00        0.00
  33383041             JUNCTION  -nan(ind)     0.00    72.49     0  00:00        0.00
  33383051             JUNCTION  -nan(ind)     0.00    72.68     0  00:00        0.00
  33383061             JUNCTION  -nan(ind)     0.00    72.81     0  00:00        0.00
  33399010             JUNCTION  -nan(ind)     0.00    73.18     0  00:00        0.00
  33399020             JUNCTION  -nan(ind)     0.00    76.23     0  00:00        0.00
  33399030             JUNCTION  -nan(ind)     0.00    77.29     0  00:00        0.00
  33461010             JUNCTION  -nan(ind)     0.00    73.54     0  00:00        0.00
  33461020             JUNCTION  -nan(ind)     0.00    74.02     0  00:00        0.00
  33461030             JUNCTION  -nan(ind)     0.00    74.23     0  00:00        0.00
  33462010             JUNCTION  -nan(ind)     0.00    74.57     0  00:00        0.00
  33462020             JUNCTION  -nan(ind)     0.00    75.09     0  00:00        0.00
  33462030             JUNCTION  -nan(ind)     0.00    75.70     0  00:00        0.00
  33463010             JUNCTION  -nan(ind)     0.00    76.83     0  00:00        0.00
  33463020             JUNCTION  -nan(ind)     0.00    78.10     0  00:00        0.00
  33464010             JUNCTION  -nan(ind)     0.00    79.13     0  00:00        0.00
  33464020             JUNCTION  -nan(ind)     0.00    79.46     0  00:00        0.00
  33471010             JUNCTION  -nan(ind)     0.00    79.59     0  00:00        0.00
  33471020             JUNCTION  -nan(ind)     0.00    79.76     0  00:00        0.00
  33472010             JUNCTION  -nan(ind)     0.00    79.92     0  00:00        0.00
  33472020             JUNCTION  -nan(ind)     0.00    80.09     0  00:00        0.00
  33472030             JUNCTION  -nan(ind)     0.00    80.27     0  00:00        0.00
  33492010             JUNCTION  -nan(ind)     0.00    78.54     0  00:00        0.00
  33492020             JUNCTION  -nan(ind)     0.00    79.89     0  00:00        0.00
  33492030             JUNCTION  -nan(ind)     0.00    80.33     0  00:00        0.00
  3365                 JUNCTION  -nan(ind)     0.00    80.35     0  00:00        0.00
  3366                 JUNCTION  -nan(ind)     0.00    80.21     0  00:00        0.00
  33700010             JUNCTION  -nan(ind)     0.00   101.28     0  00:00        0.00
  33738010             JUNCTION  -nan(ind)     0.00   101.07     0  00:00        0.00
  33738020             JUNCTION  -nan(ind)     0.00   101.12     0  00:00        0.00
  33740010             JUNCTION  -nan(ind)     0.00   101.48     0  00:00        0.00
  33740020             JUNCTION  -nan(ind)     0.00   101.63     0  00:00        0.00
  33745010             JUNCTION  -nan(ind)     0.00   101.84     0  00:00        0.00
  33745020             JUNCTION  -nan(ind)     0.00   102.00     0  00:00        0.00
  33827010             JUNCTION  -nan(ind)     0.00   102.33     0  00:00        0.00
  33827020             JUNCTION  -nan(ind)     0.00   102.61     0  00:00        0.00
  33828010             JUNCTION  -nan(ind)     0.00   102.73     0  00:00        0.00
  33828020             JUNCTION  -nan(ind)     0.00   102.86     0  00:00        0.00
  33829010             JUNCTION  -nan(ind)     0.00   103.18     0  00:00        0.00
  33830010             JUNCTION  -nan(ind)     0.00   103.29     0  00:00        0.00
  33861010             JUNCTION  -nan(ind)     0.00    84.32     0  00:00        0.00
  33861020             JUNCTION  -nan(ind)     0.00    84.62     0  00:00        0.00
  33862010             JUNCTION  -nan(ind)     0.00    85.22     0  00:00        0.00
  33862020             JUNCTION  -nan(ind)     0.00    86.20     0  00:00        0.00
  33863010             JUNCTION  -nan(ind)     0.00    86.87     0  00:00        0.00
  33865010             JUNCTION  -nan(ind)     0.00    83.33     0  00:00        0.00
  33865020             JUNCTION  -nan(ind)     0.00    83.94     0  00:00        0.00
  33873010             JUNCTION  -nan(ind)     0.00    87.08     0  00:00        0.00
  33903010             JUNCTION  -nan(ind)     0.00   103.92     0  00:00        0.00
  33903E02             JUNCTION  -nan(ind)     0.00   104.14     0  00:00        0.00
  33903E03             JUNCTION  -nan(ind)     0.00   104.14     0  00:00        0.00
  33903E04             JUNCTION  -nan(ind)     0.00   104.50     0  00:00        0.00
  33903E05             JUNCTION  -nan(ind)     0.00   104.61     0  00:00        0.00
  33907010             JUNCTION  -nan(ind)     0.00   103.61     0  00:00        0.00
  33908010             JUNCTION  -nan(ind)     0.00   103.71     0  00:00        0.00
  3395                 JUNCTION  -nan(ind)     0.00    76.21     0  00:00        0.00
  34                   JUNCTION  -nan(ind)     0.00    74.61     0  00:00        0.00
  34002                JUNCTION  -nan(ind)     0.00    72.24     0  00:00        0.00
  34003010             JUNCTION  -nan(ind)     0.00    80.46     0  00:00        0.00
  34003020             JUNCTION  -nan(ind)     0.00    80.49     0  00:00        0.00
  34008010             JUNCTION  -nan(ind)     0.00    80.63     0  00:00        0.00
  34008020             JUNCTION  -nan(ind)     0.00    80.74     0  00:00        0.00
  34008031             JUNCTION  -nan(ind)     0.00    80.82     0  00:00        0.00
  34020                JUNCTION  -nan(ind)     0.00    72.24     0  00:00        0.00
  34021010             JUNCTION  -nan(ind)     0.00    80.93     0  00:00        0.00
  34021020             JUNCTION  -nan(ind)     0.00    81.05     0  00:00        0.00
  34021030             JUNCTION  -nan(ind)     0.00    81.23     0  00:00        0.00
  34021040             JUNCTION  -nan(ind)     0.00    81.39     0  00:00        0.00
  34022010             JUNCTION  -nan(ind)     0.00    81.45     0  00:00        0.00
  34022020             JUNCTION  -nan(ind)     0.00    81.52     0  00:00        0.00
  34022030             JUNCTION  -nan(ind)     0.00    81.71     0  00:00        0.00
  34023010             JUNCTION  -nan(ind)     0.00    81.77     0  00:00        0.00
  34023020             JUNCTION  -nan(ind)     0.00    81.86     0  00:00        0.00
  34023030             JUNCTION  -nan(ind)     0.00    81.92     0  00:00        0.00
  34024010             JUNCTION  -nan(ind)     0.00    82.13     0  00:00        0.00
  34024020             JUNCTION  -nan(ind)     0.00    82.31     0  00:00        0.00
  34024030             JUNCTION  -nan(ind)     0.00    82.36     0  00:00        0.00
  34024040             JUNCTION  -nan(ind)     0.00    82.53     0  00:00        0.00
  34026010             JUNCTION  -nan(ind)     0.00    82.59     0  00:00        0.00
  34026020             JUNCTION  -nan(ind)     0.00    82.73     0  00:00        0.00
  34026030             JUNCTION  -nan(ind)     0.00    82.82     0  00:00        0.00
  34026040             JUNCTION  -nan(ind)     0.00    83.11     0  00:00        0.00
  34026050             JUNCTION  -nan(ind)     0.00    83.17     0  00:00        0.00
  34026061             JUNCTION  -nan(ind)     0.00    83.22     0  00:00        0.00
  34030                JUNCTION  -nan(ind)     0.00    72.45     0  00:00        0.00
  34040                JUNCTION  -nan(ind)     0.00    72.42     0  00:00        0.00
  34050                JUNCTION  -nan(ind)     0.00    72.68     0  00:00        0.00
  34125-020            JUNCTION  -nan(ind)     0.00    86.95     0  00:00        0.00
  34125-030            JUNCTION  -nan(ind)     0.00    87.29     0  00:00        0.00
  34125010             JUNCTION  -nan(ind)     0.00    82.62     0  00:00        0.00
  34153010             JUNCTION  -nan(ind)     0.00    83.86     0  00:00        0.00
  34154010             JUNCTION  -nan(ind)     0.00    84.48     0  00:00        0.00
  34154020             JUNCTION  -nan(ind)     0.00    84.59     0  00:00        0.00
  34154030             JUNCTION  -nan(ind)     0.00    84.90     0  00:00        0.00
  34154040             JUNCTION  -nan(ind)     0.00    85.24     0  00:00        0.00
  34155010             JUNCTION  -nan(ind)     0.00    85.46     0  00:00        0.00
  34156010             JUNCTION  -nan(ind)     0.00    85.60     0  00:00        0.00
  34156020             JUNCTION  -nan(ind)     0.00    85.87     0  00:00        0.00
  34158010             JUNCTION  -nan(ind)     0.00    86.00     0  00:00        0.00
  34158020             JUNCTION  -nan(ind)     0.00    86.12     0  00:00        0.00
  34158030             JUNCTION  -nan(ind)     0.00    86.45     0  00:00        0.00
  34166010             JUNCTION  -nan(ind)     0.00    86.74     0  00:00        0.00
  34166020             JUNCTION  -nan(ind)     0.00    86.84     0  00:00        0.00
  34210                JUNCTION  -nan(ind)     0.00    73.84     0  00:00        0.00
  34211-010            JUNCTION  -nan(ind)     0.00    87.45     0  00:00        0.00
  34216-010            JUNCTION  -nan(ind)     0.00    77.53     0  00:00        0.00
  34216-020            JUNCTION  -nan(ind)     0.00    80.74     0  00:00        0.00
  34216030             JUNCTION  -nan(ind)     0.00    81.25     0  00:00        0.00
  34220                JUNCTION  -nan(ind)     0.00    73.88     0  00:00        0.00
  34230                JUNCTION  -nan(ind)     0.00    73.90     0  00:00        0.00
  345010               JUNCTION  -nan(ind)     0.00    71.90     0  00:00        0.00
  345111               JUNCTION  -nan(ind)     0.00    73.77     0  00:00        0.00
  345121               JUNCTION  -nan(ind)     0.00    73.83     0  00:00        0.00
  345131               JUNCTION  -nan(ind)     0.00    74.13     0  00:00        0.00
  345141               JUNCTION  -nan(ind)     0.00    74.42     0  00:00        0.00
  345151               JUNCTION  -nan(ind)     0.00    74.55     0  00:00        0.00
  345161               JUNCTION  -nan(ind)     0.00    74.63     0  00:00        0.00
  345171               JUNCTION  -nan(ind)     0.00    74.79     0  00:00        0.00
  345181               JUNCTION  -nan(ind)     0.00    75.05     0  00:00        0.00
  345191               JUNCTION  -nan(ind)     0.00    75.17     0  00:00        0.00
  346010               JUNCTION  -nan(ind)     0.00    71.94     0  00:00        0.00
  346020               JUNCTION  -nan(ind)     0.00    72.88     0  00:00        0.00
  346111               JUNCTION  -nan(ind)     0.00    73.04     0  00:00        0.00
  346121               JUNCTION  -nan(ind)     0.00    73.58     0  00:00        0.00
  346131               JUNCTION  -nan(ind)     0.00    73.77     0  00:00        0.00
[...]
  P757                    5.82   -nan(ind)  -nan(ind)  -nan(ind)  -nan(ind)  -nan(ind)  -nan(ind)  -nan(ind)  -nan(ind)  -nan(ind)
  P758                    1.42   -nan(ind)  -nan(ind)  -nan(ind)  -nan(ind)  -nan(ind)  -nan(ind)  -nan(ind)  -nan(ind)  -nan(ind)
  P759                    1.00   -nan(ind)  -nan(ind)  -nan(ind)  -nan(ind)  -nan(ind)  -nan(ind)  -nan(ind)  -nan(ind)  -nan(ind)
  P76                     1.00   -nan(ind)  -nan(ind)  -nan(ind)  -nan(ind)  -nan(ind)  -nan(ind)  -nan(ind)  -nan(ind)  -nan(ind)
  P760                    1.84   -nan(ind)  -nan(ind)  -nan(ind)  -nan(ind)  -nan(ind)  -nan(ind)  -nan(ind)  -nan(ind)  -nan(ind)
  P761                   21.79   -nan(ind)  -nan(ind)  -nan(ind)  -nan(ind)  -nan(ind)  -nan(ind)  -nan(ind)  -nan(ind)  -nan(ind)
  P762                    1.00   -nan(ind)  -nan(ind)  -nan(ind)  -nan(ind)  -nan(ind)  -nan(ind)  -nan(ind)  -nan(ind)  -nan(ind)
  P763                    1.00   -nan(ind)  -nan(ind)  -nan(ind)  -nan(ind)  -nan(ind)  -nan(ind)  -nan(ind)  -nan(ind)  -nan(ind)
  P764                    5.44   -nan(ind)  -nan(ind)  -nan(ind)  -nan(ind)  -nan(ind)  -nan(ind)  -nan(ind)  -nan(ind)  -nan(ind)
  P765                   27.68   -nan(ind)  -nan(ind)  -nan(ind)  -nan(ind)  -nan(ind)  -nan(ind)  -nan(ind)  -nan(ind)  -nan(ind)
  P766                    1.37   -nan(ind)  -nan(ind)  -nan(ind)  -nan(ind)  -nan(ind)  -nan(ind)  -nan(ind)  -nan(ind)  -nan(ind)
  P767                   15.34   -nan(ind)  -nan(ind)  -nan(ind)  -nan(ind)  -nan(ind)  -nan(ind)  -nan(ind)  -nan(ind)  -nan(ind)
  P768                    1.26   -nan(ind)  -nan(ind)  -nan(ind)  -nan(ind)  -nan(ind)  -nan(ind)  -nan(ind)  -nan(ind)  -nan(ind)
  P769                    1.05   -nan(ind)  -nan(ind)  -nan(ind)  -nan(ind)  -nan(ind)  -nan(ind)  -nan(ind)  -nan(ind)  -nan(ind)
  P77                     1.00   -nan(ind)  -nan(ind)  -nan(ind)  -nan(ind)  -nan(ind)  -nan(ind)  -nan(ind)  -nan(ind)  -nan(ind)
  P770                    1.00   -nan(ind)  -nan(ind)  -nan(ind)  -nan(ind)  -nan(ind)  -nan(ind)  -nan(ind)  -nan(ind)  -nan(ind)
  P771                    2.39   -nan(ind)  -nan(ind)  -nan(ind)  -nan(ind)  -nan(ind)  -nan(ind)  -nan(ind)  -nan(ind)  -nan(ind)
  P774                    1.00   -nan(ind)  -nan(ind)  -nan(ind)  -nan(ind)  -nan(ind)  -nan(ind)  -nan(ind)  -nan(ind)  -nan(ind)
  P779                    3.85   -nan(ind)  -nan(ind)  -nan(ind)  -nan(ind)  -nan(ind)  -nan(ind)  -nan(ind)  -nan(ind)  -nan(ind)
  P78                     1.00   -nan(ind)  -nan(ind)  -nan(ind)  -nan(ind)  -nan(ind)  -nan(ind)  -nan(ind)  -nan(ind)  -nan(ind)
  P780                    4.48   -nan(ind)  -nan(ind)  -nan(ind)  -nan(ind)  -nan(ind)  -nan(ind)  -nan(ind)  -nan(ind)  -nan(ind)
  P781                    1.53   -nan(ind)  -nan(ind)  -nan(ind)  -nan(ind)  -nan(ind)  -nan(ind)  -nan(ind)  -nan(ind)  -nan(ind)
  P782                    2.93   -nan(ind)  -nan(ind)  -nan(ind)  -nan(ind)  -nan(ind)  -nan(ind)  -nan(ind)  -nan(ind)  -nan(ind)
  P787                    1.00   -nan(ind)  -nan(ind)  -nan(ind)  -nan(ind)  -nan(ind)  -nan(ind)  -nan(ind)  -nan(ind)  -nan(ind)
  P788                    5.92   -nan(ind)  -nan(ind)  -nan(ind)  -nan(ind)  -nan(ind)  -nan(ind)  -nan(ind)  -nan(ind)  -nan(ind)
  P789                    1.00   -nan(ind)  -nan(ind)  -nan(ind)  -nan(ind)  -nan(ind)  -nan(ind)  -nan(ind)  -nan(ind)  -nan(ind)
  P79                     1.00   -nan(ind)  -nan(ind)  -nan(ind)  -nan(ind)  -nan(ind)  -nan(ind)  -nan(ind)  -nan(ind)  -nan(ind)
  P790                   12.87   -nan(ind)  -nan(ind)  -nan(ind)  -nan(ind)  -nan(ind)  -nan(ind)  -nan(ind)  -nan(ind)  -nan(ind)
  P791                    3.39   -nan(ind)  -nan(ind)  -nan(ind)  -nan(ind)  -nan(ind)  -nan(ind)  -nan(ind)  -nan(ind)  -nan(ind)
  P792                    1.00   -nan(ind)  -nan(ind)  -nan(ind)  -nan(ind)  -nan(ind)  -nan(ind)  -nan(ind)  -nan(ind)  -nan(ind)
  P793                    2.54   -nan(ind)  -nan(ind)  -nan(ind)  -nan(ind)  -nan(ind)  -nan(ind)  -nan(ind)  -nan(ind)  -nan(ind)
  P794                    1.00   -nan(ind)  -nan(ind)  -nan(ind)  -nan(ind)  -nan(ind)  -nan(ind)  -nan(ind)  -nan(ind)  -nan(ind)
  P795                    2.18   -nan(ind)  -nan(ind)  -nan(ind)  -nan(ind)  -nan(ind)  -nan(ind)  -nan(ind)  -nan(ind)  -nan(ind)
  P796                   13.76   -nan(ind)  -nan(ind)  -nan(ind)  -nan(ind)  -nan(ind)  -nan(ind)  -nan(ind)  -nan(ind)  -nan(ind)
  P797                   10.09   -nan(ind)  -nan(ind)  -nan(ind)  -nan(ind)  -nan(ind)  -nan(ind)  -nan(ind)  -nan(ind)  -nan(ind)
  P798                    1.00   -nan(ind)  -nan(ind)  -nan(ind)  -nan(ind)  -nan(ind)  -nan(ind)  -nan(ind)  -nan(ind)  -nan(ind)
  P799                    4.06   -nan(ind)  -nan(ind)  -nan(ind)  -nan(ind)  -nan(ind)  -nan(ind)  -nan(ind)  -nan(ind)  -nan(ind)
  P8                      1.00   -nan(ind)  -nan(ind)  -nan(ind)  -nan(ind)  -nan(ind)  -nan(ind)  -nan(ind)  -nan(ind)  -nan(ind)
  P80                     1.00   -nan(ind)  -nan(ind)  -nan(ind)  -nan(ind)  -nan(ind)  -nan(ind)  -nan(ind)  -nan(ind)  -nan(ind)
  P800                    1.00   -nan(ind)  -nan(ind)  -nan(ind)  -nan(ind)  -nan(ind)  -nan(ind)  -nan(ind)  -nan(ind)  -nan(ind)
  P801                    5.92   -nan(ind)  -nan(ind)  -nan(ind)  -nan(ind)  -nan(ind)  -nan(ind)  -nan(ind)  -nan(ind)  -nan(ind)
  P802                    1.00   -nan(ind)  -nan(ind)  -nan(ind)  -nan(ind)  -nan(ind)  -nan(ind)  -nan(ind)  -nan(ind)  -nan(ind)
  P803                    2.86   -nan(ind)  -nan(ind)  -nan(ind)  -nan(ind)  -nan(ind)  -nan(ind)  -nan(ind)  -nan(ind)  -nan(ind)
  P804                    8.98   -nan(ind)  -nan(ind)  -nan(ind)  -nan(ind)  -nan(ind)  -nan(ind)  -nan(ind)  -nan(ind)  -nan(ind)
  P805                    5.82   -nan(ind)  -nan(ind)  -nan(ind)  -nan(ind)  -nan(ind)  -nan(ind)  -nan(ind)  -nan(ind)  -nan(ind)
  P806                    1.00   -nan(ind)  -nan(ind)  -nan(ind)  -nan(ind)  -nan(ind)  -nan(ind)  -nan(ind)  -nan(ind)  -nan(ind)
  P807                    1.01   -nan(ind)  -nan(ind)  -nan(ind)  -nan(ind)  -nan(ind)  -nan(ind)  -nan(ind)  -nan(ind)  -nan(ind)
  P808                    1.00   -nan(ind)  -nan(ind)  -nan(ind)  -nan(ind)  -nan(ind)  -nan(ind)  -nan(ind)  -nan(ind)  -nan(ind)
  P809                    1.00   -nan(ind)  -nan(ind)  -nan(ind)  -nan(ind)  -nan(ind)  -nan(ind)  -nan(ind)  -nan(ind)  -nan(ind)
  P81                     1.00   -nan(ind)  -nan(ind)  -nan(ind)  -nan(ind)  -nan(ind)  -nan(ind)  -nan(ind)  -nan(ind)  -nan(ind)
  P810                    5.39   -nan(ind)  -nan(ind)  -nan(ind)  -nan(ind)  -nan(ind)  -nan(ind)  -nan(ind)  -nan(ind)  -nan(ind)
  P811                    1.07   -nan(ind)  -nan(ind)  -nan(ind)  -nan(ind)  -nan(ind)  -nan(ind)  -nan(ind)  -nan(ind)  -nan(ind)
  P812                    6.27   -nan(ind)  -nan(ind)  -nan(ind)  -nan(ind)  -nan(ind)  -nan(ind)  -nan(ind)  -nan(ind)  -nan(ind)
  P813                    1.00   -nan(ind)  -nan(ind)  -nan(ind)  -nan(ind)  -nan(ind)  -nan(ind)  -nan(ind)  -nan(ind)  -nan(ind)
  P814                    1.43   -nan(ind)  -nan(ind)  -nan(ind)  -nan(ind)  -nan(ind)  -nan(ind)  -nan(ind)  -nan(ind)  -nan(ind)
  P815                   22.57   -nan(ind)  -nan(ind)  -nan(ind)  -nan(ind)  -nan(ind)  -nan(ind)  -nan(ind)  -nan(ind)  -nan(ind)
  P816                    8.73   -nan(ind)  -nan(ind)  -nan(ind)  -nan(ind)  -nan(ind)  -nan(ind)  -nan(ind)  -nan(ind)  -nan(ind)
  P817                   18.37   -nan(ind)  -nan(ind)  -nan(ind)  -nan(ind)  -nan(ind)  -nan(ind)  -nan(ind)  -nan(ind)  -nan(ind)
  P818                    1.53   -nan(ind)  -nan(ind)  -nan(ind)  -nan(ind)  -nan(ind)  -nan(ind)  -nan(ind)  -nan(ind)  -nan(ind)
  P819                    4.66   -nan(ind)  -nan(ind)  -nan(ind)  -nan(ind)  -nan(ind)  -nan(ind)  -nan(ind)  -nan(ind)  -nan(ind)
  P82                     1.00   -nan(ind)  -nan(ind)  -nan(ind)  -nan(ind)  -nan(ind)  -nan(ind)  -nan(ind)  -nan(ind)  -nan(ind)
  P820                    3.40   -nan(ind)  -nan(ind)  -nan(ind)  -nan(ind)  -nan(ind)  -nan(ind)  -nan(ind)  -nan(ind)  -nan(ind)
  P821                    1.00   -nan(ind)  -nan(ind)  -nan(ind)  -nan(ind)  -nan(ind)  -nan(ind)  -nan(ind)  -nan(ind)  -nan(ind)
  P822                    1.00   -nan(ind)  -nan(ind)  -nan(ind)  -nan(ind)  -nan(ind)  -nan(ind)  -nan(ind)  -nan(ind)  -nan(ind)
  P823                    1.00   -nan(ind)  -nan(ind)  -nan(ind)  -nan(ind)  -nan(ind)  -nan(ind)  -nan(ind)  -nan(ind)  -nan(ind)
  P83                     1.00   -nan(ind)  -nan(ind)  -nan(ind)  -nan(ind)  -nan(ind)  -nan(ind)  -nan(ind)  -nan(ind)  -nan(ind)
  P84                     1.00   -nan(ind)  -nan(ind)  -nan(ind)  -nan(ind)  -nan(ind)  -nan(ind)  -nan(ind)  -nan(ind)  -nan(ind)
  P85                     1.00   -nan(ind)  -nan(ind)  -nan(ind)  -nan(ind)  -nan(ind)  -nan(ind)  -nan(ind)  -nan(ind)  -nan(ind)
  P86                     1.00   -nan(ind)  -nan(ind)  -nan(ind)  -nan(ind)  -nan(ind)  -nan(ind)  -nan(ind)  -nan(ind)  -nan(ind)
  P87                     1.00   -nan(ind)  -nan(ind)  -nan(ind)  -nan(ind)  -nan(ind)  -nan(ind)  -nan(ind)  -nan(ind)  -nan(ind)
  P88                     1.00   -nan(ind)  -nan(ind)  -nan(ind)  -nan(ind)  -nan(ind)  -nan(ind)  -nan(ind)  -nan(ind)  -nan(ind)
  P89                     1.00   -nan(ind)  -nan(ind)  -nan(ind)  -nan(ind)  -nan(ind)  -nan(ind)  -nan(ind)  -nan(ind)  -nan(ind)
  P9                      1.00   -nan(ind)  -nan(ind)  -nan(ind)  -nan(ind)  -nan(ind)  -nan(ind)  -nan(ind)  -nan(ind)  -nan(ind)
  P90                     1.00   -nan(ind)  -nan(ind)  -nan(ind)  -nan(ind)  -nan(ind)  -nan(ind)  -nan(ind)  -nan(ind)  -nan(ind)
  P91                     1.13   -nan(ind)  -nan(ind)  -nan(ind)  -nan(ind)  -nan(ind)  -nan(ind)  -nan(ind)  -nan(ind)  -nan(ind)
  P92                     1.05   -nan(ind)  -nan(ind)  -nan(ind)  -nan(ind)  -nan(ind)  -nan(ind)  -nan(ind)  -nan(ind)  -nan(ind)
  P93                     1.00   -nan(ind)  -nan(ind)  -nan(ind)  -nan(ind)  -nan(ind)  -nan(ind)  -nan(ind)  -nan(ind)  -nan(ind)
  P94                     1.00   -nan(ind)  -nan(ind)  -nan(ind)  -nan(ind)  -nan(ind)  -nan(ind)  -nan(ind)  -nan(ind)  -nan(ind)
  P95                     1.00   -nan(ind)  -nan(ind)  -nan(ind)  -nan(ind)  -nan(ind)  -nan(ind)  -nan(ind)  -nan(ind)  -nan(ind)
  P96                     1.00   -nan(ind)  -nan(ind)  -nan(ind)  -nan(ind)  -nan(ind)  -nan(ind)  -nan(ind)  -nan(ind)  -nan(ind)
  P97                     1.00   -nan(ind)  -nan(ind)  -nan(ind)  -nan(ind)  -nan(ind)  -nan(ind)  -nan(ind)  -nan(ind)  -nan(ind)
  P98                     1.00   -nan(ind)  -nan(ind)  -nan(ind)  -nan(ind)  -nan(ind)  -nan(ind)  -nan(ind)  -nan(ind)  -nan(ind)
  P99                     1.00   -nan(ind)  -nan(ind)  -nan(ind)  -nan(ind)  -nan(ind)  -nan(ind)  -nan(ind)  -nan(ind)  -nan(ind)
  SLOWRELEASE             1.00   -nan(ind)  -nan(ind)  -nan(ind)  -nan(ind)  -nan(ind)  -nan(ind)  -nan(ind)  -nan(ind)  -nan(ind)
  U11                     1.00   -nan(ind)  -nan(ind)  -nan(ind)  -nan(ind)  -nan(ind)  -nan(ind)  -nan(ind)  -nan(ind)  -nan(ind)
  
  
  *************************
  Conduit Surcharge Summary
  *************************
  
  No conduits were surcharged.
  
  
  ***************
  Pumping Summary
  ***************
  
  ---------------------------------------------------------------------------------------------------------
                                                  Min       Avg       Max     Total     Power    % Time Off
                        Percent   Number of      Flow      Flow      Flow    Volume     Usage    Pump Curve
  Pump                 Utilized   Start-Ups       LPS       LPS       LPS  10^6 ltr     Kw-hr    Low   High
  ---------------------------------------------------------------------------------------------------------
  CELL4PUMP            -nan(ind)           0      0.00      0.00      0.00     0.000      0.00    0.0    0.0
  OKILLPUMP1           -nan(ind)           0      0.00      0.00      0.00     0.000      0.00    0.0    0.0
  OKILLPUMP2           -nan(ind)           0      0.00      0.00      0.00     0.000      0.00    0.0    0.0
  OKILLPUMP3           -nan(ind)           0      0.00      0.00      0.00     0.000      0.00    0.0    0.0
  OKILLPUMP4           -nan(ind)           0      0.00      0.00      0.00     0.000      0.00    0.0    0.0
  P-1000               -nan(ind)           0      0.00      0.00      0.00     0.000      0.00    0.0    0.0
  P-1002               -nan(ind)           0      0.00      0.00      0.00     0.000      0.00    0.0    0.0
  P-BARRETT            -nan(ind)           0      0.00      0.00      0.00     0.000      0.00    0.0    0.0
  P-BATH               -nan(ind)           0      0.00      0.00      0.00     0.000      0.00    0.0    0.0
  P-BATHCOLLINSBAY     -nan(ind)           0      0.00      0.00      0.00     0.000      0.00    0.0    0.0
  P-COLLIINSBAY        -nan(ind)           0      0.00      0.00      0.00     0.000      0.00    0.0    0.0
  P-COVERDALE          -nan(ind)           0      0.00      0.00      0.00     0.000      0.00    0.0    0.0
  P-CRERAR             -nan(ind)           0      0.00      0.00      0.00     0.000      0.00    0.0    0.0
  P-GREENVIEW          -nan(ind)           0      0.00      0.00      0.00     0.000      0.00    0.0    0.0
  P-HATTER             -nan(ind)           0      0.00      0.00      0.00     0.000      0.00    0.0    0.0
  P-HILLVIEWRD         -nan(ind)           0      0.00      0.00      0.00     0.000      0.00    0.0    0.0
  P-HWY15              -nan(ind)           0      0.00      0.00      0.00     0.000      0.00    0.0    0.0
  P-JAMESST            -nan(ind)           0      0.00      0.00      0.00     0.000      0.00    0.0    0.0
  P-JOHNCOUNTER        -nan(ind)           0      0.00      0.00      0.00     0.000      0.00    0.0    0.0
  P-KENWOODS           -nan(ind)           0      0.00      0.00      0.00     0.000      0.00    0.0    0.0
  P-KING-ELEVATORBAY   -nan(ind)           0      0.00      0.00      0.00     0.000      0.00    0.0    0.0
  P-KING-PORTSMOUTH    -nan(ind)           0      0.00      0.00      0.00     0.000      0.00    0.0    0.0
  P-LAG-BATH           -nan(ind)           0      0.00      0.00      0.00     0.000      0.00    0.0    0.0
  P-LAG-BATHCOLLINSBAY -nan(ind)           0      0.00      0.00      0.00     0.000      0.00    0.0    0.0
  P-LAG-BATHLOWER      -nan(ind)           0      0.00      0.00      0.00     0.000      0.00    0.0    0.0
  P-LAG-COLLINGSBAY    -nan(ind)           0      0.00      0.00      0.00     0.000      0.00    0.0    0.0
  P-LAG-COVERDALE      -nan(ind)           0      0.00      0.00      0.00     0.000      0.00    0.0    0.0
  P-LAG-CRERAR         -nan(ind)           0      0.00      0.00      0.00     0.000      0.00    0.0    0.0
  P-LAG-GREENVIEW      -nan(ind)           0      0.00      0.00      0.00     0.000      0.00    0.0    0.0
  P-LAG-HATTER         -nan(ind)           0      0.00      0.00      0.00     0.000      0.00    0.0    0.0
  P-LAG-HILLVIEW       -nan(ind)           0      0.00      0.00      0.00     0.000      0.00    0.0    0.0
  P-LAG-HWY15          -nan(ind)           0      0.00      0.00      0.00     0.000      0.00    0.0    0.0
  P-LAG-JOHNCOUNTER    -nan(ind)           0      0.00      0.00      0.00     0.000      0.00    0.0    0.0
  P-LAG-KENWOODS       -nan(ind)           0      0.00      0.00      0.00     0.000      0.00    0.0    0.0
  P-LAG-KING-ELEVATORBAY -nan(ind)           0      0.00      0.00      0.00     0.000      0.00    0.0    0.0
  P-LAG-KING-LAKEONTARIOPARK -nan(ind)           0      0.00      0.00      0.00     0.000      0.00    0.0    0.0
  P-LAG-LAKESHORE      -nan(ind)           0      0.00      0.00      0.00     0.000      0.00    0.0    0.0
  P-LAG-MORTON         -nan(ind)           0      0.00      0.00      0.00     0.000      0.00    0.0    0.0
  P-LAG-PALACERD       -nan(ind)           0      0.00      0.00      0.00     0.000      0.00    0.0    0.0
  P-LAG-RANKIN         -nan(ind)           0      0.00      0.00      0.00     0.000      0.00    0.0    0.0
  P-LAG-SCHOONER       -nan(ind)           0      0.00      0.00      0.00     0.000      0.00    0.0    0.0
  P-LAG-WESTBROOKE     -nan(ind)           0      0.00      0.00      0.00     0.000      0.00    0.0    0.0
  P-LAG-YONGE          -nan(ind)           0      0.00      0.00      0.00     0.000      0.00    0.0    0.0
  P-LAG1-BARRET        -nan(ind)           0      0.00      0.00      0.00     0.000      0.00    0.0    0.0
  P-LAG1-BAYRIDGE      -nan(ind)           0      0.00      0.00      0.00     0.000      0.00    0.0    0.0
  P-LAG1-DALTON        -nan(ind)           0      0.00      0.00      0.00     0.000      0.00    0.0    0.0
  P-LAG1-DAYS          -nan(ind)           0      0.00      0.00      0.00     0.000      0.00    0.0    0.0
  P-LAG1-JAMES         -nan(ind)           0      0.00      0.00      0.00     0.000      0.00    0.0    0.0
  P-LAG1-KING-PORTSMOUTH -nan(ind)           0      0.00      0.00      0.00     0.000      0.00    0.0    0.0
  P-LAG1-RIVER         -nan(ind)           0      0.00      0.00      0.00     0.000      0.00    0.0    0.0
  P-LAG2-BARRET        -nan(ind)           0      0.00      0.00      0.00     0.000      0.00    0.0    0.0
  P-LAG2-DALTON        -nan(ind)           0      0.00      0.00      0.00     0.000      0.00    0.0    0.0
  P-LAG2-DAYS          -nan(ind)           0      0.00      0.00      0.00     0.000      0.00    0.0    0.0
  P-LAG2-JAMES         -nan(ind)           0      0.00      0.00      0.00     0.000      0.00    0.0    0.0
  P-LAG2-KING-PORTSMOUTH -nan(ind)           0      0.00      0.00      0.00     0.000      0.00    0.0    0.0
  P-LAG2-RIVERST       -nan(ind)           0      0.00      0.00      0.00     0.000      0.00    0.0    0.0
  P-LAG3-DALTON        -nan(ind)           0      0.00      0.00      0.00     0.000      0.00    0.0    0.0
  P-LAG3-DAYS          -nan(ind)           0      0.00      0.00      0.00     0.000      0.00    0.0    0.0
  P-LAG3-RIVERST       -nan(ind)           0      0.00      0.00      0.00     0.000      0.00    0.0    0.0
  P-LAKESHORE          -nan(ind)           0      0.00      0.00      0.00     0.000      0.00    0.0    0.0
  P-LEAD-DALTON        -nan(ind)           0      0.00      0.00      0.00     0.000      0.00    0.0    0.0
  P-LEAD-RIVERST       -nan(ind)           0      0.00      0.00      0.00     0.000      0.00    0.0    0.0
  P-MORTON             -nan(ind)           0      0.00      0.00      0.00     0.000      0.00    0.0    0.0
  P-ONTARIOLAKEPARK    -nan(ind)           0      0.00      0.00      0.00     0.000      0.00    0.0    0.0
  P-PALACERD_LEAD      -nan(ind)           0      0.00      0.00      0.00     0.000      0.00    0.0    0.0
  P-RANKIN             -nan(ind)           0      0.00      0.00      0.00     0.000      0.00    0.0    0.0
  P-SCHOONER           -nan(ind)           0      0.00      0.00      0.00     0.000      0.00    0.0    0.0
  P-WESTBROOKE         -nan(ind)           0      0.00      0.00      0.00     0.000      0.00    0.0    0.0
  P-YONGE              -nan(ind)           0      0.00      0.00      0.00     0.000      0.00    0.0    0.0
  PUMP-19              -nan(ind)           0      0.00      0.00      0.00     0.000      0.00    0.0    0.0
  U26                  -nan(ind)           0      0.00      0.00      0.00     0.000      0.00    0.0    0.0
  U27                  -nan(ind)           0      0.00      0.00      0.00     0.000      0.00    0.0    0.0
  U28                  -nan(ind)           0      0.00      0.00      0.00     0.000      0.00    0.0    0.0
  

  Analysis begun on:  Sat Nov 30 08:10:35 2019
  Analysis ended on:  Sat Nov 30 08:10:35 2019
  Total elapsed time: < 1 sec