
  EPA STORM WATER MANAGEMENT MODEL - VERSION 5.1 (Build 5.1.013)
  --------------------------------------------------------------

  projet annasr2 
  
  
  *********************************************************
  NOTE: The summary statistics displayed in this report are
  based on results found at every computational time step,  
  not just on results from each reporting time step.
  *********************************************************
  
  ****************
  Analysis Options
  ****************
  Flow Units ............... CMS
  Process Models:
    Rainfall/Runoff ........ YES
    RDII ................... NO
    Snowmelt ............... NO
    Groundwater ............ NO
    Flow Routing ........... YES
    Ponding Allowed ........ NO
    Water Quality .......... NO
  Infiltration Method ...... HORTON
  Flow Routing Method ...... DYNWAVE
  Surcharge Method ......... EXTRAN
  Starting Date ............ 03/19/2014 00:00:00
  Ending Date .............. 03/19/2014 04:00:00
  Antecedent Dry Days ...... 0.0
  Report Time Step ......... 00:01:00
  Wet Time Step ............ 00:00:30
  Dry Time Step ............ 01:00:00
  Routing Time Step ........ 20.00 sec
  Variable Time Step ....... YES
  Maximum Trials ........... 12
  Number of Threads ........ 1
  Head Tolerance ........... 0.000010 m
  
  
  **************************        Volume         Depth
  Runoff Quantity Continuity     hectare-m            mm
  **************************     ---------       -------
  Total Precipitation ......         8.570        31.923
  Evaporation Loss .........         0.000         0.000
  Infiltration Loss ........         0.213         0.793
  Surface Runoff ...........         7.059        26.293
  Final Storage ............         1.296         4.826
  Continuity Error (%) .....         0.033
  
  
  **************************        Volume        Volume
  Flow Routing Continuity        hectare-m      10^6 ltr
  **************************     ---------     ---------
  Dry Weather Inflow .......        15.117       151.174
  Wet Weather Inflow .......         6.906        69.057
  Groundwater Inflow .......         0.000         0.000
  RDII Inflow ..............         0.000         0.000
  External Inflow ..........         0.000         0.000
  External Outflow .........        18.670       186.705
  Flooding Loss ............         0.508         5.083
  Evaporation Loss .........         0.000         0.000
  Exfiltration Loss ........         0.000         0.000
  Initial Stored Volume ....         0.000         0.000
  Final Stored Volume ......         2.805        28.047
  Continuity Error (%) .....         0.180
  
  
  *************************
  Highest Continuity Errors
  *************************
  Node R94 (6.22%)
  Node R12 (1.02%)
  
  
  ***************************
  Time-Step Critical Elements
  ***************************
  Link C13 (85.44%)
  Link C39-1 (14.36%)
  
  
  ********************************
  Highest Flow Instability Indexes
  ********************************
  Link C43 (3)
  Link C40-1 (2)
  Link C10-2 (2)
  
  
  *************************
  Routing Time Step Summary
  *************************
  Minimum Time Step           :     0.27 sec
  Average Time Step           :     3.61 sec
  Maximum Time Step           :     7.46 sec
  Percent in Steady State     :    -0.00
  Average Iterations per Step :     5.77
  Percent Not Converging      :     1.26
  
  
  ***************************
  Subcatchment Runoff Summary
  ***************************
  
  ------------------------------------------------------------------------------------------------------------------------------
                            Total      Total      Total      Total     Imperv       Perv      Total       Total     Peak  Runoff
                           Precip      Runon       Evap      Infil     Runoff     Runoff     Runoff      Runoff   Runoff   Coeff
  Subcatchment                 mm         mm         mm         mm         mm         mm         mm    10^6 ltr      CMS
  ------------------------------------------------------------------------------------------------------------------------------
  S1                        31.92       0.00       0.00       0.91      19.02       7.38      26.40        0.24     0.07   0.827
  S2                        31.92       0.00       0.00       0.75      20.84       6.71      27.55        0.50     0.15   0.863
  S2bis                     31.92       0.00       0.00       0.75      19.74       5.44      25.18        0.30     0.07   0.789
  S3                        31.92      31.43       0.00       0.91      39.69      20.14      59.83        1.00     0.37   0.944
  S4                        31.92     218.68       0.00       1.06     144.25     101.29     245.54        2.29     0.71   0.980
  S5                        31.92       0.00       0.00       0.75      21.65       7.87      29.52        1.00     0.40   0.925
  S6                        31.92     311.19       0.00       0.76     234.45      95.47     329.92        3.48     0.99   0.962
  S7                        31.92       0.00       0.00       0.86      20.02       7.93      27.95        1.29     0.43   0.875
  S8                        31.92       0.00       0.00       0.75      21.67       7.91      29.58        0.36     0.14   0.927
  S9                        31.92       0.00       0.00       0.75      21.86       8.19      30.06        0.53     0.24   0.942
  S10                       31.92       0.00       0.00       0.75      21.42       7.53      28.95        0.89     0.32   0.907
  S11                       31.92       0.00       0.00       0.73      16.18       2.98      19.16        0.39     0.07   0.600
  S12                       31.92     660.79       0.00       0.71     494.41     189.18     683.59        6.53     1.67   0.987
  S12bis                    31.92     494.65       0.00       0.76     362.89     150.81     513.70        4.96     1.32   0.976
  S13                       31.92      94.81       0.00       1.01      74.54      46.06     120.60        2.09     0.61   0.952
  S14                       31.92       0.00       0.00       0.73      22.20       7.98      30.18        0.35     0.16   0.945
  S15                       31.92       0.00       0.00       0.73      22.04       7.76      29.80        0.44     0.18   0.934
  S16                       31.92       0.00       0.00       0.73      22.14       7.90      30.04        0.54     0.24   0.941
  S17                       31.92       0.00       0.00       0.73      21.99       7.69      29.68        0.77     0.31   0.930
  S18                       31.92       0.00       0.00       0.73      22.11       7.85      29.96        0.34     0.15   0.938
  S19                       31.92       0.00       0.00       0.96      18.63       8.06      26.69        1.36     0.41   0.836
  S20                       31.92       0.00       0.00       0.96      18.38       7.47      25.85        1.48     0.42   0.810
  S21                       31.92     113.52       0.00       0.96      82.16      35.55     117.71        5.00     1.01   0.809
  S22                       31.92    1553.57       0.00       0.73    1122.94     456.10    1579.03        6.63     1.68   0.996
  S22bis                    31.92    3232.90       0.00       0.76    2278.68     970.88    3249.56       11.67     2.69   0.995
  S23                       31.92     363.30       0.00       0.73     277.84     110.95     388.79        1.95     0.73   0.984
  S24                       31.92     182.34       0.00       0.73     150.79      60.00     210.79        1.28     0.50   0.984
  S25                       31.92       0.00       0.00       0.96      18.67       8.14      26.81        1.12     0.34   0.840
  S26                       31.92       0.00       0.00       0.73      20.40       5.72      26.12        1.05     0.28   0.818
  S27                       31.92       0.00       0.00       0.96      18.85       8.62      27.47        0.98     0.32   0.860
  S28                       31.92      58.57       0.00       0.73      55.08      15.48      70.56        1.27     0.22   0.780
  S29                       31.92     226.86       0.00       0.96     156.80      89.67     246.47        2.28     0.61   0.952
  S29bis                    31.92    1294.50       0.00       0.76     920.38     388.23    1308.61        3.46     0.79   0.987
  S30                       31.92       0.00       0.00       0.96      13.91       2.80      16.71        1.15     0.19   0.524
  S31                       31.92       0.00       0.00       0.73      21.30       6.77      28.08        0.41     0.13   0.879
  S32                       31.92       0.00       0.00       0.73      21.22       6.67      27.89        0.66     0.21   0.874
  S33                       31.92       0.00       0.00       0.73      22.14       7.90      30.04        0.21     0.09   0.941
  S34                       31.92     162.33       0.00       0.73     134.48      52.12     186.61        1.92     0.37   0.961
  S35                       31.92     130.38       0.00       0.96      97.52      54.26     151.78        4.02     0.87   0.935
  S36                       31.92     180.66       0.00       0.96     120.22      54.54     174.76        4.78     0.83   0.822
  S37                       31.92     339.94       0.00       0.96     224.47     128.37     352.83        6.24     1.06   0.949
  S38                       31.92     317.10       0.00       0.73     244.35      96.84     341.19        1.53     0.50   0.978
  S39                       31.92       0.00       0.00       0.73      21.82       7.46      29.27        0.55     0.21   0.917
  S40                       31.92       0.00       0.00       0.73      16.08       2.94      19.02        0.28     0.05   0.596
  S41                       31.92       0.00       0.00       0.73      21.55       7.10      28.65        0.59     0.20   0.897
  S42                       31.92       0.00       0.00       0.73      21.56       7.11      28.67        0.93     0.32   0.898
  S43                       31.92      42.79       0.00       0.73      46.97      14.09      61.06        1.24     0.24   0.817
  S44                       31.92       0.00       0.00       0.73      21.79       7.42      29.20        0.13     0.05   0.915
  S45                       31.92       0.00       0.00       0.73      21.51       7.04      28.55        0.85     0.29   0.894
  S46                       31.92       0.00       0.00       0.73      14.63       2.41      17.04        0.62     0.09   0.534
  S47                       31.92     260.30       0.00       0.73     201.44      77.37     278.82        2.80     0.80   0.954
  S48                       31.92       0.00       0.00       0.73      22.00       7.71      29.71        0.58     0.24   0.931
  S49                       31.92       0.00       0.00       0.73      21.59       7.14      28.73        0.73     0.25   0.900
  S50                       31.92       0.00       0.00       0.73      21.86       7.51      29.37        1.02     0.39   0.920
  S51                       31.92       0.00       0.00       0.96      14.66       3.21      17.87        0.30     0.05   0.560
  S52                       31.92       0.00       0.00       0.96      18.90       8.75      27.66        0.37     0.12   0.866
  S52bis                    31.92       0.00       0.00       0.75      21.67       7.91      29.58        0.45     0.18   0.927
  S53                       31.92      24.57       0.00       0.75      37.92      14.34      52.26        0.64     0.18   0.925
  S54                       31.92      28.32       0.00       0.76      40.98      15.83      56.80        1.65     0.56   0.943
  S55                       31.92       0.00       0.00       0.75      21.51       7.66      29.17        0.15     0.06   0.914
  S56                       31.92       0.00       0.00       0.75      21.41       7.51      28.92        0.49     0.17   0.906
  S57                       31.92       0.00       0.00       0.75      20.92       6.82      27.74        0.44     0.14   0.869
  S58                       31.92       0.00       0.00       0.75      21.37       7.46      28.82        0.94     0.34   0.903
  S59                       31.92     204.13       0.00       0.96     143.38      82.28     225.66        2.06     0.59   0.956
  S60                       31.92       0.00       0.00       0.96      19.31       9.90      29.21        0.22     0.09   0.915
  S61                       31.92     467.96       0.00       0.96     305.79     180.46     486.25        3.79     1.06   0.973
  S62                       31.92     219.47       0.00       0.96     154.56      91.75     246.31        1.23     0.50   0.980
  S63                       31.92       0.00       0.00       0.96      18.58       7.92      26.50        0.09     0.03   0.830
  S64                       31.92       0.00       0.00       0.75      21.86       8.19      30.06        0.55     0.24   0.942
  S65                       31.92      19.99       0.00       0.76      35.96      14.36      50.32        0.83     0.40   0.969
  S65bis                    31.92       0.00       0.00       0.75      22.05       8.45      30.50        0.33     0.17   0.955
  S66                       31.92       0.00       0.00       0.75      21.98       8.36      30.34        0.55     0.26   0.951
  S67                       31.92       0.00       0.00       0.75      21.62       7.82      29.44        0.26     0.10   0.922
  S68                       31.92       0.00       0.00       0.75      22.15       8.59      30.74        0.24     0.14   0.963
  S69                       31.92     329.05       0.00       0.76     248.54     102.88     351.42        4.30     1.10   0.974
  S70                       31.92       0.00       0.00       0.75      21.59       7.78      29.37        0.23     0.09   0.920
  S71                       31.92      36.04       0.00       0.76      46.96      18.89      65.85        0.89     0.39   0.969
  S72                       31.92       0.00       0.00       0.75      22.15       8.59      30.73        0.06     0.03   0.963
  S73                       31.92       0.00       0.00       0.75      22.00       8.38      30.38        0.19     0.09   0.952
  S74                       31.92       0.00       0.00       0.75      21.89       8.22      30.11        0.36     0.17   0.943
  S75                       31.92       0.00       0.00       0.75      22.20       8.67      30.87        0.13     0.07   0.967
  S76                       31.92       0.00       0.00       0.75      22.20       8.67      30.87        0.35     0.21   0.967
  S77                       31.92       0.00       0.00       0.75      21.54       7.71      29.26        0.52     0.20   0.916
  S78                       31.92     102.98       0.00       0.76      93.00      38.05     131.05        4.97     1.69   0.971
  S79                       31.92     291.32       0.00       0.76     222.61      92.01     314.61        2.75     0.83   0.973
  S80                       31.92       0.00       0.00       0.81      21.07       8.38      29.45        1.04     0.42   0.922
  S81                       31.92      39.65       0.00       0.76      48.24      18.52      66.77        1.92     0.54   0.933
  S81bis                    31.92      33.63       0.00       0.76      43.69      16.28      59.97        1.14     0.31   0.915
  S82                       31.92       0.00       0.00       0.75      20.54       6.32      26.86        1.07     0.30   0.841
  S83                       31.92      99.39       0.00       0.76      89.71      36.10     125.81        1.35     0.36   0.958
  S84                       31.92       0.00       0.00       0.75      21.02       6.96      27.98        1.75     0.56   0.877
  S85                       31.92       0.00       0.00       0.75      21.72       7.98      29.69        0.87     0.36   0.930
  S86                       31.92     322.65       0.00       0.73     249.48      99.74     349.22        2.42     0.82   0.985
  S87                       31.92     218.13       0.00       0.73     176.00      70.21     246.22        1.42     0.46   0.985
  S88                       31.92       0.00       0.00       0.75      21.75       8.02      29.77        0.82     0.34   0.932
  S89                       31.92       0.00       0.00       0.75      18.92       4.71      23.63        0.13     0.03   0.740
  S90                       31.92     809.94       0.00       0.76     583.94     245.71     829.65        1.95     0.68   0.985
  S91                       31.92       0.00       0.00       0.75      21.75       8.02      29.77        0.24     0.10   0.932
  S92                       31.92       0.00       0.00       0.75      21.87       8.20      30.08        0.31     0.14   0.942
  S93                       31.92     621.65       0.00       0.76     434.34     166.34     600.68        2.18     0.55   0.919
  S94                       31.92       0.00       0.00       0.96      19.43      10.26      29.70        0.48     0.21   0.930
  S95                       31.92       0.00       0.00       0.96      19.11       9.34      28.45        0.40     0.15   0.891
  S96                       31.92       0.00       0.00       0.96      19.44      10.27      29.71        0.11     0.05   0.931
  S97                       31.92       0.00       0.00       0.96      19.47      10.37      29.84        0.08     0.04   0.935
  S98                       31.92       0.00       0.00       0.75      22.06       8.47      30.52        0.05     0.02   0.956
  S99                       31.92       0.00       0.00       0.75      22.06       8.47      30.53        0.14     0.07   0.956
  S100                      31.92      83.15       0.00       0.76      79.39      32.38     111.77        1.70     0.65   0.971
  S101                      31.92       0.00       0.00       0.75      21.37       7.46      28.84        0.53     0.19   0.903
  S102                      31.92       0.00       0.00       0.75      21.63       7.84      29.47        0.64     0.25   0.923
  S103                      31.92       0.00       0.00       0.75      21.77       8.05      29.82        0.46     0.20   0.934
  S104                      31.92       0.00       0.00       0.75      21.80       8.10      29.91        0.80     0.34   0.937
  S105                      31.92       0.00       0.00       0.75      21.11       7.09      28.20        1.26     0.41   0.883
  S106                      31.92       0.00       0.00       0.75      21.96       8.33      30.29        0.16     0.08   0.949
  S107                      31.92       0.00       0.00       0.75      21.70       7.95      29.65        2.23     0.91   0.929
  S108                      31.92     264.87       0.00       0.76     205.48      85.65     291.13        3.59     1.33   0.981
  S109                      31.92       0.00       0.00       0.75      21.57       7.76      29.33        1.04     0.40   0.919
  S110                      31.92      76.97       0.00       0.76      75.11      30.63     105.73        0.94     0.32   0.971
  S111                      31.92       0.00       0.00       0.75      22.10       8.53      30.63        0.15     0.08   0.959
  S112                      31.92       0.00       0.00       0.75      21.03       6.97      28.00        0.52     0.17   0.877
  S113                      31.92       0.00       0.00       0.75      21.76       8.04      29.81        0.15     0.06   0.934
  S114                      31.92       0.00       0.00       0.75      21.61       7.81      29.42        0.60     0.23   0.922
  S115                      31.92      23.70       0.00       0.76      38.13      14.95      53.08        1.68     0.64   0.954
  S116                      31.92      65.92       0.00       0.76      66.58      26.24      92.82        3.90     1.23   0.949
  S117                      31.92    1258.68       0.00       0.76     899.35     381.87    1281.23        7.63     2.55   0.993
  S118                      31.92    1470.62       0.00       0.76    1045.07     442.53    1487.60        9.02     2.93   0.990
  S119                      31.92       0.00       0.00       0.75      21.45       7.58      29.04        1.30     0.48   0.910
  S120                      31.92       0.00       0.00       0.75      21.98       8.36      30.35        0.45     0.22   0.951
  S121                      31.92       0.00       0.00       0.75      22.00       8.38      30.38        0.83     0.41   0.952
  S122                      31.92       0.00       0.00       0.75      21.91       8.26      30.18        0.43     0.20   0.945
  S123                      31.92       0.00       0.00       0.75      21.88       8.21      30.09        0.39     0.18   0.943
  S124                      31.92       0.00       0.00       0.75      21.59       7.79      29.38        0.46     0.18   0.920
  S125                      31.92      90.36       0.00       0.76      84.71      34.88     119.60        1.09     0.46   0.978
  S126                      31.92      26.16       0.00       0.76      40.19      16.14      56.33        1.14     0.47   0.970
  S127                      31.92      96.64       0.00       0.76      89.45      37.19     126.64        1.09     0.51   0.985
  S128                      31.92       0.00       0.00       0.96      19.65      10.86      30.51        0.06     0.03   0.956
  S129                      31.92       0.00       0.00       0.96      19.56      10.63      30.20        0.02     0.01   0.946
  S130                      31.92       0.00       0.00       0.75      21.06       7.00      28.06        1.32     0.42   0.879
  S131                      31.92      11.70       0.00       0.76      28.46       9.44      37.91        1.47     0.42   0.869
  S132                      31.92    1874.33       0.00       0.76    1325.98     561.78    1887.76       10.40     3.26   0.990
  S133                      31.92       0.00       0.00       0.75      22.03       8.44      30.47        0.09     0.04   0.955
  S134                      31.92       0.00       0.00       0.96      18.50       7.75      26.25        0.15     0.04   0.822
  S135                      31.92      70.94       0.00       0.76      69.96      27.48      97.44        2.55     0.87   0.947
  S136                      31.92       0.00       0.00       0.75      22.01       8.40      30.41        0.30     0.15   0.953
  S137                      31.92       0.00       0.00       0.75      22.07       8.48      30.55        0.16     0.08   0.957
  S138                      31.92       0.00       0.00       0.75      22.07       8.48      30.55        0.18     0.09   0.957
  S139                      31.92       0.00       0.00       0.75      22.22       8.69      30.91        0.07     0.04   0.968
  S140                      31.92     354.42       0.00       0.76     269.51     114.10     383.61        0.64     0.25   0.993
  S141                      31.92     536.64       0.00       0.76     396.99     168.68     565.67        0.84     0.35   0.995
  S142                      31.92     674.98       0.00       0.76     493.86     210.20     704.06        1.31     0.59   0.996
  S143                      31.92       0.00       0.00       0.75      21.90       8.24      30.14        0.13     0.06   0.944
  S144                      31.92       0.00       0.00       0.75      22.15       8.59      30.74        0.13     0.07   0.963
  S145                      31.92       0.00       0.00       0.75      21.51       7.67      29.18        0.13     0.05   0.914
  S146                      31.92     126.02       0.00       0.76     109.71      45.67     155.38        0.32     0.13   0.984
  S147                      31.92       0.00       0.00       0.75      21.76       8.04      29.80        0.17     0.07   0.933
  S148                      31.92     117.00       0.00       0.76      99.32      37.22     136.55        0.34     0.11   0.917
  S149                      31.92      32.67       0.00       0.76      44.86      18.20      63.07        0.25     0.13   0.976
  S150                      31.92     409.56       0.00       0.76     307.87     130.39     438.27        0.90     0.32   0.993
  S151                      31.92       0.00       0.00       0.75      21.93       8.29      30.22        0.14     0.07   0.947
  S152                      31.92       0.00       0.00       0.75      22.17       8.62      30.80        0.14     0.08   0.965
  S153                      31.92     211.70       0.00       0.76     169.46      71.14     240.60        1.19     0.41   0.988
  S154                      31.92       0.00       0.00       0.75      21.89       8.22      30.11        0.42     0.19   0.943
  S155                      31.92       0.00       0.00       0.75      21.98       8.36      30.34        0.17     0.08   0.950
  
  
  ******************
  Node Depth Summary
  ******************
  
  ---------------------------------------------------------------------------------
                                 Average  Maximum  Maximum  Time of Max    Reported
                                   Depth    Depth      HGL   Occurrence   Max Depth
  Node                 Type       Meters   Meters   Meters  days hr:min      Meters
  ---------------------------------------------------------------------------------
  R1                   JUNCTION     0.00     0.00   180.00     0  00:00        0.00
  R4                   JUNCTION     0.00     0.00   178.42     0  00:00        0.00
  R8                   JUNCTION     0.00     0.00   168.97     0  00:00        0.00
  R12                  JUNCTION     0.13     0.34   168.35     0  02:07        0.34
  R19                  JUNCTION     0.09     0.22   166.72     0  02:08        0.22
  R20                  JUNCTION     0.11     0.28   165.73     0  02:07        0.28
  R25                  JUNCTION     0.11     0.26   161.09     0  02:08        0.26
  R27                  JUNCTION     1.29     1.76   160.64     0  02:08        1.76
  R34-1                JUNCTION     1.02     1.34   158.70     0  02:09        1.34
  R34-2                JUNCTION     0.27     0.57   157.93     0  02:14        0.57
  R41-1                JUNCTION     1.27     1.92   156.73     0  02:10        1.92
  R41-2                JUNCTION     0.31     0.63   155.44     0  02:14        0.63
  R44-1                JUNCTION     1.79     2.48   156.23     0  02:08        2.48
  R44-2                JUNCTION     0.47     0.99   154.74     0  02:15        0.99
  R45                  JUNCTION     0.00     0.00   184.45     0  00:00        0.00
  R55                  JUNCTION     1.10     1.14   165.18     0  02:05        1.14
  R56                  JUNCTION     1.36     1.47   165.06     0  00:01        1.40
  R58                  JUNCTION     1.15     1.22   164.49     0  02:06        1.22
  R65                  JUNCTION     1.21     1.35   163.41     0  02:07        1.34
  R71                  JUNCTION     1.16     1.41   162.41     0  02:07        1.41
  R79                  JUNCTION     1.10     1.38   161.02     0  02:08        1.38
  R82                  JUNCTION     0.00     0.00   189.60     0  00:00        0.00
  R83                  JUNCTION     0.00     0.00   188.93     0  00:00        0.00
  R86                  JUNCTION     0.05     0.15   181.26     0  02:04        0.15
  R88                  JUNCTION     0.07     0.22   178.76     0  02:04        0.22
  R91                  JUNCTION     0.06     0.18   176.16     0  02:04        0.18
  R94                  JUNCTION     0.63     0.70   172.60     0  02:04        0.70
  R95                  JUNCTION     0.85     0.92   172.60     0  02:05        0.92
  R96                  JUNCTION     0.88     0.95   172.37     0  02:07        0.95
  R97                  JUNCTION     0.84     1.02   172.30     0  02:07        1.02
  R100                 JUNCTION     0.85     1.05   171.47     0  02:06        1.05
  R102                 JUNCTION     0.74     0.97   170.77     0  02:06        0.97
  R104                 JUNCTION     0.83     1.13   170.43     0  02:06        1.13
  R105                 JUNCTION     0.84     1.17   170.25     0  02:07        1.17
  R115                 JUNCTION     0.60     0.85   167.78     0  02:09        0.85
  R116                 JUNCTION     0.42     0.56   165.71     0  02:08        0.56
  R117                 JUNCTION     0.45     0.61   163.40     0  02:08        0.61
  R118                 JUNCTION     0.56     0.80   161.22     0  02:07        0.79
  R119                 JUNCTION     0.82     1.18   161.05     0  02:08        1.18
  R130                 JUNCTION     0.50     0.80   158.13     0  02:09        0.80
  R40                  JUNCTION     2.07     2.50   156.09     0  02:02        2.50
  R41                  JUNCTION     0.58     0.91   154.51     0  01:40        0.90
  Out1                 OUTFALL      0.00     0.00   150.00     0  00:00        0.00
  1                    STORAGE      0.80     1.14   154.57     0  02:32        1.14
  R53                  STORAGE      1.09     1.12   166.20     0  02:05        1.12
  
  
  *******************
  Node Inflow Summary
  *******************
  
  -------------------------------------------------------------------------------------------------
                                  Maximum  Maximum                  Lateral       Total        Flow
                                  Lateral    Total  Time of Max      Inflow      Inflow     Balance
                                   Inflow   Inflow   Occurrence      Volume      Volume       Error
  Node                 Type           CMS      CMS  days hr:min    10^6 ltr    10^6 ltr     Percent
  -------------------------------------------------------------------------------------------------
  R1                   JUNCTION     0.000    0.000     0  00:00           0           0       0.000 ltr
  R4                   JUNCTION     0.000    0.000     0  00:00           0           0       0.000 ltr
  R8                   JUNCTION     0.000    0.000     0  00:00           0           0       0.000 ltr
  R12                  JUNCTION     0.393    0.393     0  02:05        1.02        1.02       1.029
  R19                  JUNCTION     0.000    0.360     0  02:07           0        1.01       0.334
  R20                  JUNCTION     0.252    0.593     0  02:07       0.726        1.73       0.179
  R25                  JUNCTION     0.000    0.593     0  02:07           0        1.73       0.228
  R27                  JUNCTION     0.995   15.225     0  02:08        3.38         137       0.387
  R34-1                JUNCTION     0.095   15.326     0  02:09       0.615         137       0.402
  R34-2                JUNCTION     2.693    2.693     0  02:13        11.7        11.7       0.319
  R41-1                JUNCTION     0.329   25.110     0  02:09       0.938         194       0.301
  R41-2                JUNCTION     0.786    3.446     0  02:13        3.46        15.1       0.451
  R44-1                JUNCTION     0.049   25.090     0  02:10       0.131         194       0.112
  R44-2                JUNCTION     1.059    4.389     0  02:15        6.23        21.3       0.176
  R45                  JUNCTION     0.000    0.000     0  00:00           0           0       0.000 ltr
  R55                  JUNCTION     0.027    8.401     0  02:05      0.0894         116       0.074
  R56                  JUNCTION     0.000    8.401     0  02:05           0         116       0.096
  R58                  JUNCTION     0.504    8.907     0  02:05        1.23         117       0.253
  R65                  JUNCTION     1.425   10.308     0  02:07        5.34         122       0.407
  R71                  JUNCTION     2.483   12.773     0  02:07        7.72         129       0.388
  R79                  JUNCTION     0.894   13.668     0  02:08        3.26         132       0.300
  R82                  JUNCTION     0.000    0.000     0  00:00           0           0       0.000 ltr
  R83                  JUNCTION     0.000    0.000     0  00:00           0           0       0.000 ltr
  R86                  JUNCTION     0.130    0.130     0  02:04       0.254       0.254       0.131
  R88                  JUNCTION     0.078    0.203     0  02:03       0.136        0.39       0.093
  R91                  JUNCTION     0.099    0.302     0  02:04       0.237       0.626       0.237
  R94                  JUNCTION     0.000    0.641     0  00:00           0       0.674       6.632
  R95                  JUNCTION     2.500    2.801     0  02:04          36        36.6       0.110
  R96                  JUNCTION     0.000    2.800     0  02:05           0        36.5       0.105
  R97                  JUNCTION     0.770    3.539     0  02:07        3.06        39.6       0.216
  R100                 JUNCTION     0.513    4.000     0  02:06        1.29        40.8       0.336
  R102                 JUNCTION     0.696    4.685     0  02:06        1.81        42.4       0.203
  R104                 JUNCTION     0.109    4.773     0  02:06       0.222        42.6       0.165
  R105                 JUNCTION     0.274    5.027     0  02:06       0.684        43.2       0.527
  R115                 JUNCTION     0.000    5.045     0  02:07           0          43       0.396
  R116                 JUNCTION     0.634    5.513     0  02:07        1.55        44.3       0.058
  R117                 JUNCTION     0.000    5.512     0  02:08           0        44.3       0.067
  R118                 JUNCTION     0.543    5.950     0  02:07        1.16        45.4       0.069
  R119                 JUNCTION     0.010    5.957     0  02:07        0.02        45.4       0.547
  R130                 JUNCTION     3.647    9.578     0  02:09        11.9          57       0.274
  R40                  JUNCTION     0.000   25.107     0  02:10           0         193       0.103
  R41                  JUNCTION     0.000    4.389     0  02:15           0        21.3       0.276
  Out1                 OUTFALL      0.000   21.124     0  02:32           0         187       0.000
  1                    STORAGE      0.000   23.065     0  02:21           0         209       0.038
  R53                  STORAGE      8.375    8.375     0  02:05         116         116       0.100
  
  
  **********************
  Node Surcharge Summary
  **********************
  
  Surcharging occurs when water rises above the top of the highest conduit.
  ---------------------------------------------------------------------
                                               Max. Height   Min. Depth
                                   Hours       Above Crown    Below Rim
  Node                 Type      Surcharged         Meters       Meters
  ---------------------------------------------------------------------
  R40                  JUNCTION        0.37          0.000        0.000
  
  
  *********************
  Node Flooding Summary
  *********************
  
  Flooding refers to all water that overflows a node, whether it ponds or not.
  --------------------------------------------------------------------------
                                                             Total   Maximum
                                 Maximum   Time of Max       Flood    Ponded
                        Hours       Rate    Occurrence      Volume     Depth
  Node                 Flooded       CMS   days hr:min    10^6 ltr    Meters
  --------------------------------------------------------------------------
  R40                     0.37     7.005      0  02:10       5.081     0.000
  
  
  **********************
  Storage Volume Summary
  **********************
  
  --------------------------------------------------------------------------------------------------
                         Average     Avg  Evap Exfil       Maximum     Max    Time of Max    Maximum
                          Volume    Pcnt  Pcnt  Pcnt        Volume    Pcnt     Occurrence    Outflow
  Storage Unit           1000 m3    Full  Loss  Loss       1000 m3    Full    days hr:min        CMS
  --------------------------------------------------------------------------------------------------
  1                       20.560       9     0     0        29.238      13       0  02:32     21.124
  R53                      0.109      32     0     0         0.112      33       0  02:05      8.375
  
  
  ***********************
  Outfall Loading Summary
  ***********************
  
  -----------------------------------------------------------
                         Flow       Avg       Max       Total
                         Freq      Flow      Flow      Volume
  Outfall Node           Pcnt       CMS       CMS    10^6 ltr
  -----------------------------------------------------------
  Out1                  97.46    13.517    21.124     186.704
  -----------------------------------------------------------
  System                97.46    13.517    21.124     186.704
  
  
  ********************
  Link Flow Summary
  ********************
  
  -----------------------------------------------------------------------------
                                 Maximum  Time of Max   Maximum    Max/    Max/
                                  |Flow|   Occurrence   |Veloc|    Full    Full
  Link                 Type          CMS  days hr:min     m/sec    Flow   Depth
  -----------------------------------------------------------------------------
  C1                   CONDUIT     0.000     0  00:00      0.00    0.00    0.00
  C2                   CONDUIT     0.000     0  00:00      0.00    0.00    0.00
  C3                   CONDUIT     0.000     0  00:00      0.00    0.00    0.21
  C4                   CONDUIT     0.360     0  02:07      2.29    0.32    0.35
  C5                   CONDUIT     0.357     0  02:08      2.69    0.16    0.31
  C6                   CONDUIT     0.593     0  02:07      3.96    0.25    0.34
  C7                   CONDUIT     0.592     0  02:08      1.67    0.23    0.66
  C8                   CONDUIT    15.232     0  02:09      4.78    0.72    0.62
  C9-1                 CONDUIT    15.287     0  02:10      5.21    0.56    0.65
  C9-2                 CONDUIT     2.691     0  02:14      3.37    0.18    0.30
  C10-1                CONDUIT    25.054     0  02:10      5.48    0.94    0.88
  C10-2                CONDUIT     3.442     0  02:14      2.88    0.18    0.37
  C11                  CONDUIT     0.000     0  00:00      0.00    0.00    0.50
  C12                  CONDUIT     8.375     0  02:05      6.30    0.91    0.75
  C13                  CONDUIT     8.401     0  02:05      5.75    0.92    0.85
  C14                  CONDUIT     8.406     0  02:05      4.45    0.72    0.64
  C15                  CONDUIT     8.904     0  02:06      5.35    0.59    0.58
  C16                  CONDUIT    10.294     0  02:07      4.61    0.69    0.63
  C17                  CONDUIT    12.796     0  02:08      4.66    0.60    0.56
  C18                  CONDUIT    13.648     0  02:08      4.44    0.59    0.63
  C19                  CONDUIT     0.000     0  00:00      0.00    0.00    0.00
  C20                  CONDUIT     0.000     0  00:00      0.00    0.00    0.19
  C21                  CONDUIT     0.129     0  02:04      2.28    0.32    0.46
  C22                  CONDUIT     0.203     0  02:04      3.28    0.52    0.49
  C23                  CONDUIT     0.301     0  02:04      1.06    0.11    0.55
  C24                  CONDUIT     0.641     0  00:00      6.14    0.21    0.67
  C25                  CONDUIT     2.800     0  02:05      4.09    0.93    0.77
  C26                  CONDUIT     2.792     0  02:04      3.08    0.93    0.82
  C27                  CONDUIT     3.536     0  02:07      3.75    0.96    0.79
  C28                  CONDUIT     3.995     0  02:06      3.36    0.88    0.72
  C29                  CONDUIT     4.682     0  02:06      3.35    0.68    0.66
  C30                  CONDUIT     4.770     0  02:06      3.10    0.84    0.72
  C31                  CONDUIT     5.045     0  02:07      3.85    0.78    0.63
  C32                  CONDUIT     4.964     0  02:08      5.88    0.30    0.44
  C33                  CONDUIT     5.512     0  02:08      8.20    0.27    0.37
  C34                  CONDUIT     5.512     0  02:08      6.48    0.31    0.44
  C35                  CONDUIT     5.950     0  02:07      4.59    0.49    0.62
  C36                  CONDUIT     5.957     0  02:08      4.18    0.64    0.55
  C37                  CONDUIT     9.568     0  02:09      4.24    0.33    0.68
  C39-1                CONDUIT    25.107     0  02:10      5.12    0.94    1.00
  C40-1                CONDUIT     4.389     0  02:15      3.54    0.23    0.39
  C42                  CONDUIT    19.017     0  02:25      4.99    0.71    0.72
  C43                  CONDUIT     4.389     0  02:15      3.09    0.23    0.45
  1                    ORIFICE    21.124     0  02:32                          
  
  
  ***************************
  Flow Classification Summary
  ***************************
  
  -------------------------------------------------------------------------------------
                      Adjusted    ---------- Fraction of Time in Flow Class ---------- 
                       /Actual         Up    Down  Sub   Sup   Up    Down  Norm  Inlet 
  Conduit               Length    Dry  Dry   Dry   Crit  Crit  Crit  Crit  Ltd   Ctrl  
  -------------------------------------------------------------------------------------
  C1                      1.00   1.00  0.00  0.00  0.00  0.00  0.00  0.00  0.00  0.00
  C2                      1.00   1.00  0.00  0.00  0.00  0.00  0.00  0.00  0.00  0.00
  C3                      1.00   0.02  0.98  0.00  0.00  0.00  0.00  0.00  0.00  0.00
  C4                      1.00   0.02  0.00  0.00  0.05  0.93  0.00  0.00  0.00  0.00
  C5                      1.00   0.02  0.01  0.00  0.10  0.87  0.00  0.00  0.97  0.00
  C6                      1.00   0.02  0.00  0.00  0.01  0.97  0.00  0.00  0.00  0.00
  C7                      1.00   0.00  0.03  0.00  0.97  0.00  0.00  0.00  0.97  0.00
  C8                      1.00   0.00  0.00  0.00  0.01  0.99  0.00  0.00  0.00  0.00
  C9-1                    1.00   0.00  0.00  0.00  0.01  0.99  0.00  0.00  0.97  0.00
  C9-2                    1.00   0.02  0.00  0.00  0.08  0.91  0.00  0.00  0.82  0.00
  C10-1                   1.00   0.00  0.00  0.00  0.08  0.91  0.00  0.00  0.94  0.00
  C10-2                   1.00   0.02  0.00  0.00  0.39  0.59  0.00  0.00  0.95  0.00
  C11                     1.00   0.00  1.00  0.00  0.00  0.00  0.00  0.00  0.00  0.00
  C12                     1.00   0.00  0.00  0.00  0.00  1.00  0.00  0.00  1.00  0.00
  C13                     1.40   0.00  0.00  0.00  0.00  1.00  0.00  0.00  1.00  0.00
  C14                     1.00   0.00  0.00  0.00  0.00  1.00  0.00  0.00  0.00  0.00
  C15                     1.00   0.00  0.00  0.00  0.00  1.00  0.00  0.00  0.99  0.00
  C16                     1.00   0.00  0.00  0.00  0.00  1.00  0.00  0.00  0.11  0.00
  C17                     1.00   0.00  0.00  0.00  0.00  1.00  0.00  0.00  0.01  0.00
  C18                     1.00   0.00  0.00  0.00  0.00  0.99  0.00  0.00  0.98  0.00
  C19                     1.00   1.00  0.00  0.00  0.00  0.00  0.00  0.00  0.00  0.00
  C20                     1.00   0.02  0.98  0.00  0.00  0.00  0.00  0.00  0.00  0.00
  C21                     1.00   0.02  0.00  0.00  0.03  0.95  0.00  0.00  0.97  0.00
  C22                     1.00   0.02  0.00  0.00  0.01  0.97  0.00  0.00  0.46  0.00
  C23                     1.00   0.00  0.03  0.00  0.97  0.00  0.00  0.00  0.97  0.00
  C24                     1.00   0.00  0.00  0.00  1.00  0.00  0.00  0.00  0.00  0.00
  C25                     1.00   0.00  0.00  0.00  0.05  0.95  0.00  0.00  0.99  0.00
  C26                     1.08   0.00  0.00  0.00  0.15  0.85  0.00  0.00  0.22  0.00
  C27                     1.00   0.00  0.00  0.00  0.06  0.94  0.00  0.00  0.99  0.00
  C28                     1.00   0.00  0.00  0.00  0.00  1.00  0.00  0.00  0.00  0.00
  C29                     1.00   0.00  0.00  0.00  0.00  1.00  0.00  0.00  0.99  0.00
  C30                     1.00   0.00  0.00  0.00  0.06  0.94  0.00  0.00  0.97  0.00
  C31                     1.00   0.00  0.00  0.00  0.00  0.99  0.00  0.00  0.00  0.00
  C32                     1.18   0.00  0.00  0.00  0.00  1.00  0.00  0.00  0.00  0.00
  C33                     1.55   0.00  0.00  0.00  0.00  0.99  0.00  0.00  0.99  0.00
  C34                     1.01   0.01  0.00  0.00  0.00  0.99  0.00  0.00  0.99  0.00
  C35                     1.58   0.01  0.00  0.00  0.00  0.99  0.00  0.00  0.97  0.00
  C36                     1.00   0.01  0.00  0.00  0.01  0.98  0.00  0.00  0.00  0.00
  C37                     1.00   0.00  0.00  0.00  0.04  0.95  0.00  0.00  0.99  0.00
  C39-1                   2.60   0.01  0.00  0.00  0.88  0.11  0.00  0.00  0.12  0.00
  C40-1                   2.41   0.02  0.00  0.00  0.55  0.44  0.00  0.00  0.36  0.00
  C42                     2.60   0.01  0.00  0.00  0.01  0.98  0.00  0.00  0.00  0.00
  C43                     2.41   0.02  0.00  0.00  0.84  0.14  0.00  0.00  0.23  0.00
  
  
  *************************
  Conduit Surcharge Summary
  *************************
  
  ----------------------------------------------------------------------------
                                                           Hours        Hours 
                         --------- Hours Full --------   Above Full   Capacity
  Conduit                Both Ends  Upstream  Dnstream   Normal Flow   Limited
  ----------------------------------------------------------------------------
  C7                          0.01      0.01      3.86      0.01         0.01
  

  Analysis begun on:  Fri Nov 29 09:58:15 2019
  Analysis ended on:  Fri Nov 29 09:58:15 2019
  Total elapsed time: < 1 sec