
  EPA STORM WATER MANAGEMENT MODEL - VERSION 5.1 (Build 5.1.013)
  --------------------------------------------------------------

  WARNING 02: maximum depth increased for Node 272063
  WARNING 02: maximum depth increased for Node 272070
  WARNING 02: maximum depth increased for Node 274835
  WARNING 02: maximum depth increased for Node 274843
  WARNING 02: maximum depth increased for Node 274848
  WARNING 02: maximum depth increased for Node 287289
  WARNING 02: maximum depth increased for Node 287324
  WARNING 02: maximum depth increased for Node 385124
  WARNING 02: maximum depth increased for Node 394309
  WARNING 02: maximum depth increased for Node 395163
  WARNING 02: maximum depth increased for Node 396872
  WARNING 02: maximum depth increased for Node 400785
  WARNING 02: maximum depth increased for Node 400789
  WARNING 02: maximum depth increased for Node 400793
  WARNING 02: maximum depth increased for Node 400795
  WARNING 02: maximum depth increased for Node 400805
  WARNING 02: maximum depth increased for Node 419743
  WARNING 02: maximum depth increased for Node 424824
  WARNING 02: maximum depth increased for Node 46678
  WARNING 02: maximum depth increased for Node 46708
  WARNING 02: maximum depth increased for Node 46709
  WARNING 02: maximum depth increased for Node 48857
  WARNING 02: maximum depth increased for Node 49555
  WARNING 02: maximum depth increased for Node 49697
  WARNING 02: maximum depth increased for Node 50622
  WARNING 02: maximum depth increased for Node 50627
  WARNING 02: maximum depth increased for Node 50629
  
  *********************************************************
  NOTE: The summary statistics displayed in this report are
  based on results found at every computational time step,  
  not just on results from each reporting time step.
  *********************************************************
  
  ****************
  Analysis Options
  ****************
  Flow Units ............... LPS
  Process Models:
    Rainfall/Runoff ........ NO
    RDII ................... NO
    Snowmelt ............... NO
    Groundwater ............ NO
    Flow Routing ........... YES
    Ponding Allowed ........ YES
    Water Quality .......... NO
  Flow Routing Method ...... DYNWAVE
  Surcharge Method ......... EXTRAN
  Starting Date ............ 02/08/2016 00:00:00
  Ending Date .............. 02/09/2016 00:10:00
  Antecedent Dry Days ...... 5.0
  Report Time Step ......... 00:01:00
  Routing Time Step ........ 30.00 sec
  Variable Time Step ....... YES
  Maximum Trials ........... 8
  Number of Threads ........ 1
  Head Tolerance ........... 0.000100 m
  
  
  **************************        Volume        Volume
  Flow Routing Continuity        hectare-m      10^6 ltr
  **************************     ---------     ---------
  Dry Weather Inflow .......         0.143         1.433
  Wet Weather Inflow .......         0.000         0.000
  Groundwater Inflow .......         0.000         0.000
  RDII Inflow ..............         0.000         0.000
  External Inflow ..........         0.000         0.000
  External Outflow .........         0.000         0.000
  Flooding Loss ............         0.000         0.000
  Evaporation Loss .........         0.000         0.000
  Exfiltration Loss ........         0.000         0.000
  Initial Stored Volume ....         0.000         0.000
  Final Stored Volume ......         0.120         1.196
  Continuity Error (%) .....        16.558
  
  
  *************************
  Highest Continuity Errors
  *************************
  Node RMNODE_11 (100.00%)
  Node RMNODE_12 (100.00%)
  Node RMNODE_14 (100.00%)
  Node RMNODE_6 (100.00%)
  Node RMNODE_9 (100.00%)
  
  
  ***************************
  Time-Step Critical Elements
  ***************************
  Link 31601 (35.25%)
  Link 245159 (6.16%)
  Link 245158 (5.91%)
  Link 275205 (5.17%)
  Link 259147 (4.13%)
  
  
  ********************************
  Highest Flow Instability Indexes
  ********************************
  All links are stable.
  
  
  *************************
  Routing Time Step Summary
  *************************
  Minimum Time Step           :    10.01 sec
  Average Time Step           :     0.11 sec
  Maximum Time Step           :    17.16 sec
  Percent in Steady State     :    99.29
  Average Iterations per Step :     0.04
  Percent Not Converging      :    40.76
  
  
  ******************
  Node Depth Summary
  ******************
  
  ---------------------------------------------------------------------------------
                                 Average  Maximum  Maximum  Time of Max    Reported
                                   Depth    Depth      HGL   Occurrence   Max Depth
  Node                 Type       Meters   Meters   Meters  days hr:min      Meters
  ---------------------------------------------------------------------------------
  103577               JUNCTION     0.00     0.00    37.05     1  00:09        0.00
  112100               JUNCTION     0.01     1.79    17.06     1  00:10        1.79
  112101               JUNCTION     0.01     1.04    17.06     1  00:10        1.04
  112102               JUNCTION     0.00     0.05    17.06     1  00:10        0.05
  112103               JUNCTION     0.00     0.00    19.39     1  00:09        0.00
  112104               JUNCTION     0.00     0.00    25.24     1  00:06        0.00
  112105               JUNCTION     0.01     1.40    17.06     1  00:10        1.40
  112106               JUNCTION     0.01     0.86    17.06     1  00:10        0.86
  112107               JUNCTION     0.00     0.00    18.40     1  00:07        0.00
  112108               JUNCTION     0.00     0.00    20.80     1  00:02        0.00
  112109               JUNCTION     0.00     0.00    28.09     1  00:08        0.00
  112110               JUNCTION     0.01     0.88    17.07     1  00:10        0.88
  112111               JUNCTION     0.00     0.38    17.07     1  00:10        0.38
  112112               JUNCTION     0.00     0.00    19.68     1  00:05        0.00
  112113               JUNCTION     0.00     0.00    20.24     1  00:06        0.00
  112114               JUNCTION     0.00     0.00    24.83     1  00:01        0.00
  112115               JUNCTION     0.00     0.00    29.03     1  00:00        0.00
  209342               JUNCTION     0.00     0.00    26.66     1  00:08        0.00
  210695               JUNCTION     0.00     0.00    23.30     1  00:01        0.00
  210696               JUNCTION     0.00     0.00    19.02     1  00:06        0.00
  210697               JUNCTION     0.00     0.19    17.06     1  00:10        0.19
  210698               JUNCTION     0.00     0.01    17.85     1  00:00        0.01
  212668               JUNCTION     0.00     0.00    17.59     1  00:05        0.00
  212669               JUNCTION     0.00     0.00    18.72     1  00:04        0.00
  212670               JUNCTION     0.00     0.00    22.78     1  00:04        0.00
  212671               JUNCTION     0.00     0.00    24.93     1  00:01        0.00
  212672               JUNCTION     0.00     0.00    19.61     1  00:04        0.00
  212673               JUNCTION     0.00     0.00    18.67     1  00:05        0.00
  212674               JUNCTION     0.00     0.01    19.12     1  00:04        0.01
  212675               JUNCTION     0.00     0.00    21.93     1  00:03        0.00
  212676               JUNCTION     0.00     0.00    24.62     1  00:06        0.00
  222518               JUNCTION     0.00     0.01    28.87     1  00:01        0.01
  222519               JUNCTION     0.00     0.00    23.64     1  00:04        0.00
  222520               JUNCTION     0.00     0.00    24.01     1  00:07        0.00
  222563               JUNCTION     0.00     0.01    29.31     1  00:00        0.01
  224964               JUNCTION     0.00     0.00    34.72     1  00:06        0.00
  224965               JUNCTION     0.00     0.00    33.33     1  00:04        0.00
  224966               JUNCTION     0.00     0.00    40.59     1  00:01        0.00
  224967               JUNCTION     0.00     0.00    37.09     1  00:01        0.00
  224968               JUNCTION     0.00     0.00    32.34     1  00:02        0.00
  224969               JUNCTION     0.00     0.00    36.56     1  00:07        0.00
  233987               JUNCTION     0.00     0.01    29.95     1  00:07        0.01
  233988               JUNCTION     0.00     0.00    31.62     1  00:08        0.00
  233989               JUNCTION     0.00     0.00    32.75     1  00:00        0.00
  233990               JUNCTION     0.00     0.00    31.86     1  00:06        0.00
  233991               JUNCTION     0.00     0.00    31.67     1  00:09        0.00
  233992               JUNCTION     0.00     0.00    31.61     1  00:07        0.00
  233993               JUNCTION     0.00     0.01    29.55     1  00:03        0.01
  245212               JUNCTION     0.00     0.00    29.25     1  00:09        0.00
  245213               JUNCTION     0.00     0.00    23.35     1  00:09        0.00
  245214               JUNCTION     0.00     0.00    23.56     1  00:05        0.00
  245215               JUNCTION     0.00     0.00    27.77     1  00:07        0.00
  245216               JUNCTION     0.00     0.00    26.35     1  00:02        0.00
  245217               JUNCTION     0.00     0.00    33.95     1  00:00        0.00
  245218               JUNCTION     0.00     0.00    33.45     1  00:08        0.00
  245219               JUNCTION     0.00     0.00    30.77     1  00:00        0.00
  245220               JUNCTION     0.00     0.01    28.76     1  00:08        0.01
  245221               JUNCTION     0.00     0.01    27.43     1  00:05        0.01
  245222               JUNCTION     0.00     0.01    27.04     1  00:07        0.01
  245223               JUNCTION     0.00     0.01    24.30     1  00:05        0.01
  245224               JUNCTION     0.00     0.01    23.76     1  00:09        0.01
  245225               JUNCTION     0.00     0.01    23.28     1  00:06        0.01
  245226               JUNCTION     0.00     0.01    21.15     1  00:05        0.01
  245227               JUNCTION     0.00     0.01    20.45     1  00:07        0.01
  245228               JUNCTION     0.00     0.01    19.16     1  00:00        0.01
  245229               JUNCTION     0.00     0.00    35.50     1  00:02        0.00
  245230               JUNCTION     0.00     0.00    34.00     1  00:08        0.00
  245231               JUNCTION     0.00     0.00    32.65     1  00:03        0.00
  245232               JUNCTION     0.00     0.00    29.69     1  00:06        0.00
  245233               JUNCTION     0.00     0.00    28.77     1  00:07        0.00
  245234               JUNCTION     0.00     0.00    26.84     1  00:00        0.00
  245235               JUNCTION     0.00     0.01    24.24     1  00:05        0.01
  245236               JUNCTION     0.00     0.01    22.15     1  00:05        0.01
  245237               JUNCTION     0.00     0.01    20.14     1  00:01        0.01
  245238               JUNCTION     0.01     1.04    18.99     1  00:10        1.04
  245239               JUNCTION     0.01     1.20    18.99     1  00:10        1.20
  245240               JUNCTION     0.01     1.34    18.99     1  00:10        1.34
  245241               JUNCTION     0.01     1.55    18.99     1  00:10        1.55
  245242               JUNCTION     0.01     1.84    18.99     1  00:10        1.84
  245243               JUNCTION     0.01     2.05    18.99     1  00:10        2.05
  245244               JUNCTION     0.01     2.21    18.99     1  00:10        2.21
  245245               JUNCTION     0.02     2.35    18.99     1  00:10        2.35
  245246               JUNCTION     0.02     2.45    18.98     1  00:10        2.45
  245247               JUNCTION     0.02     2.60    18.98     1  00:10        2.60
  245248               JUNCTION     0.03     4.09    18.98     1  00:10        4.09
  245249               JUNCTION     0.03     4.02    18.98     1  00:10        4.02
  245250               JUNCTION     0.03     4.23    18.98     1  00:10        4.23
  245251               JUNCTION     0.03     3.92    18.98     1  00:10        3.92
  245252               JUNCTION     0.03     3.73    18.98     1  00:10        3.73
  245253               JUNCTION     0.02     3.51    18.98     1  00:10        3.51
  245254               JUNCTION     0.02     3.23    18.98     1  00:10        3.23
  245255               JUNCTION     0.02     2.96    18.98     1  00:10        2.96
  245256               JUNCTION     0.02     2.75    18.98     1  00:10        2.75
  245257               JUNCTION     0.00     0.02    19.13     1  00:01        0.02
  245258               JUNCTION     0.00     0.03    19.67     1  00:08        0.03
  245259               JUNCTION     0.00     0.03    20.01     1  00:04        0.03
  245260               JUNCTION     0.00     0.03    20.37     1  00:04        0.03
  245261               JUNCTION     0.00     0.02    20.66     1  00:07        0.02
  245262               JUNCTION     0.00     0.02    20.96     1  00:01        0.02
  245263               JUNCTION     0.00     0.02    21.33     1  00:06        0.02
  245264               JUNCTION     0.00     0.02    21.88     1  00:09        0.02
  245265               JUNCTION     0.00     0.02    22.13     1  00:00        0.02
  245266               JUNCTION     0.00     0.02    22.44     1  00:09        0.02
  245267               JUNCTION     0.00     0.02    22.73     1  00:09        0.02
  245268               JUNCTION     0.00     0.02    23.04     1  00:04        0.02
  245269               JUNCTION     0.00     0.00    31.17     1  00:08        0.00
  245270               JUNCTION     0.00     0.00    26.60     1  00:06        0.00
  245271               JUNCTION     0.00     0.00    24.81     1  00:05        0.00
  245272               JUNCTION     0.00     0.02    23.31     1  00:08        0.02
  245273               JUNCTION     0.00     0.02    23.50     1  00:09        0.02
  245274               JUNCTION     0.00     0.03    23.81     1  00:05        0.03
  259162               JUNCTION     0.00     0.01    24.65     1  00:03        0.01
  259163               JUNCTION     0.00     0.01    26.98     1  00:00        0.01
  259164               JUNCTION     0.00     0.00    27.03     1  00:08        0.00
  259165               JUNCTION     0.00     0.00    32.54     1  00:04        0.00
  259166               JUNCTION     0.00     0.00    37.47     1  00:09        0.00
  259167               JUNCTION     0.00     0.00    37.50     1  00:03        0.00
  259168               JUNCTION     0.00     0.01    36.76     1  00:09        0.01
  259169               JUNCTION     0.00     0.01    35.87     1  00:07        0.01
  259170               JUNCTION     0.00     0.00    34.59     1  00:06        0.00
  259171               JUNCTION     0.00     0.00    33.83     1  00:00        0.00
  259172               JUNCTION     0.00     0.00    35.40     1  00:06        0.00
  259173               JUNCTION     0.00     0.00    27.77     1  00:03        0.00
  259174               JUNCTION     0.00     0.01    24.36     1  00:07        0.01
  259175               JUNCTION     0.00     0.04    19.06     1  00:09        0.04
  259176               JUNCTION     0.00     0.12    18.99     1  00:10        0.12
  259177               JUNCTION     0.00     0.27    18.99     1  00:10        0.27
  259178               JUNCTION     0.00     0.00    25.96     1  00:05        0.00
  259179               JUNCTION     0.00     0.00    28.06     1  00:09        0.00
  259180               JUNCTION     0.00     0.45    18.99     1  00:10        0.45
  259181               JUNCTION     0.00     0.64    18.99     1  00:10        0.64
  259182               JUNCTION     0.01     0.85    18.99     1  00:10        0.85
  259183               JUNCTION     0.00     0.00    28.84     1  00:00        0.00
  259184               JUNCTION     0.00     0.00    25.20     1  00:04        0.00
  259185               JUNCTION     0.00     0.00    23.54     1  00:02        0.00
  272052               JUNCTION     0.00     0.01    29.30     1  00:03        0.01
  272053               JUNCTION     0.00     0.00    31.77     1  00:04        0.00
  272054               JUNCTION     0.00     0.00    32.96     1  00:02        0.00
  272055               JUNCTION     0.00     0.00    34.80     1  00:04        0.00
  272056               JUNCTION     0.00     0.00    36.01     1  00:09        0.00
  272057               JUNCTION     0.00     0.00    36.58     1  00:03        0.00
  272058               JUNCTION     0.00     0.00    37.95     1  00:04        0.00
  272059               JUNCTION     0.00     0.00    34.55     1  00:07        0.00
  272060               JUNCTION     0.00     0.03    34.53     1  00:01        0.03
  272061               JUNCTION     0.00     0.00    32.60     1  00:05        0.00
  272062               JUNCTION     0.00     0.00    31.52     1  00:08        0.00
  272063               JUNCTION     0.00     0.01    28.19     1  00:04        0.01
  272064               JUNCTION     0.00     0.00    30.47     1  00:07        0.00
  272065               JUNCTION     0.00     0.00    27.08     1  00:01        0.00
  272066               JUNCTION     0.00     0.01    25.75     1  00:00        0.01
  272067               JUNCTION     0.00     0.01    25.56     1  00:00        0.01
  272068               JUNCTION     0.00     0.01    24.93     1  00:00        0.01
  272069               JUNCTION     0.00     0.01    24.27     1  00:05        0.01
  272070               JUNCTION     0.00     0.03    21.36     1  00:07        0.03
  272071               JUNCTION     0.00     0.03    21.10     1  00:06        0.03
  272072               JUNCTION     0.00     0.02    20.77     1  00:01        0.02
  272073               JUNCTION     0.00     0.04    19.97     1  00:07        0.04
  272074               JUNCTION     0.00     0.04    19.61     1  00:02        0.04
  272075               JUNCTION     0.00     0.04    19.30     1  00:06        0.04
  272076               JUNCTION     0.00     0.00    36.00     1  00:01        0.00
  272834               JUNCTION     0.00     0.00    36.52     1  00:07        0.00
  274818               JUNCTION     0.00     0.00    19.96     1  00:07        0.00
  274819               JUNCTION     0.00     0.00    22.59     1  00:07        0.00
  274820               JUNCTION     0.00     0.00    21.40     1  00:02        0.00
  274821               JUNCTION     0.00     0.01    22.77     1  00:09        0.01
  274822               JUNCTION     0.00     0.00    26.97     1  00:08        0.00
  274823               JUNCTION     0.00     0.00    27.71     1  00:04        0.00
  274824               JUNCTION     0.00     0.00    35.85     1  00:00        0.00
  274825               JUNCTION     0.00     0.00    33.70     1  00:01        0.00
  274826               JUNCTION     0.00     0.00    26.47     1  00:07        0.00
  274827               JUNCTION     0.00     0.00    24.85     1  00:01        0.00
  274828               JUNCTION     0.00     0.00    27.85     1  00:01        0.00
  274829               JUNCTION     0.00     0.00    29.05     1  00:07        0.00
  274830               JUNCTION     0.00     0.01    26.39     1  00:09        0.01
  274831               JUNCTION     0.00     0.01    26.16     1  00:03        0.01
  274832               JUNCTION     0.00     0.00    30.86     1  00:02        0.00
  274833               JUNCTION     0.00     0.01    26.01     1  00:04        0.01
  274834               JUNCTION     0.00     0.00    27.96     1  00:07        0.00
  274835               JUNCTION     0.00     0.00    25.84     1  00:02        0.00
  274836               JUNCTION     0.00     0.01    22.47     1  00:08        0.01
  274837               JUNCTION     0.00     0.01    22.27     1  00:06        0.01
  274838               JUNCTION     0.00     0.01    20.41     1  00:07        0.01
  274839               JUNCTION     0.00     0.01    19.60     1  00:07        0.01
  274840               JUNCTION     0.02     3.51    17.06     1  00:10        3.51
  274841               JUNCTION     0.02     3.27    17.06     1  00:10        3.27
  274842               JUNCTION     0.02     2.94    17.06     1  00:10        2.94
  274843               JUNCTION     0.02     2.67    17.06     1  00:10        2.67
  274844               JUNCTION     0.00     0.68    17.06     1  00:10        0.68
  274845               JUNCTION     0.00     0.38    17.06     1  00:10        0.38
  274846               JUNCTION     0.00     0.10    17.06     1  00:10        0.10
  274847               JUNCTION     0.00     0.03    17.28     1  00:06        0.03
  274848               JUNCTION     0.00     0.03    17.51     1  00:01        0.03
  274849               JUNCTION     0.00     0.03    17.88     1  00:07        0.03
  274850               JUNCTION     0.00     0.03    18.07     1  00:00        0.03
  274851               JUNCTION     0.00     0.03    18.57     1  00:00        0.03
  274852               JUNCTION     0.00     0.03    18.90     1  00:04        0.03
  274853               JUNCTION     0.00     0.02    19.37     1  00:04        0.02
  274854               JUNCTION     0.00     0.03    19.61     1  00:03        0.03
  274855               JUNCTION     0.00     0.03    19.86     1  00:01        0.03
  274856               JUNCTION     0.00     0.03    20.08     1  00:06        0.03
  274857               JUNCTION     0.00     0.03    20.59     1  00:00        0.03
  274858               JUNCTION     0.00     0.03    20.93     1  00:06        0.03
  274859               JUNCTION     0.00     0.02    21.38     1  00:05        0.02
  274860               JUNCTION     0.00     0.02    21.94     1  00:09        0.02
  286005               JUNCTION     0.00     0.00    36.53     1  00:03        0.00
  287287               JUNCTION     0.00     0.00    36.14     1  00:09        0.00
  287288               JUNCTION     0.00     0.00    35.60     1  00:02        0.00
  287289               JUNCTION     0.00     0.01    32.33     1  00:10        0.01
  287290               JUNCTION     0.00     0.00    31.95     1  00:01        0.00
  287291               JUNCTION     0.00     0.02    26.63     1  00:03        0.02
  287292               JUNCTION     0.00     0.00    34.18     1  00:07        0.00
  287293               JUNCTION     0.00     0.01    33.98     1  00:06        0.01
  287294               JUNCTION     0.00     0.01    33.70     1  00:08        0.01
  287295               JUNCTION     0.00     0.00    33.41     1  00:01        0.00
  287296               JUNCTION     0.00     0.01    29.77     1  00:03        0.01
  287297               JUNCTION     0.00     0.01    28.80     1  00:09        0.01
  287298               JUNCTION     0.00     0.00    34.46     1  00:01        0.00
  287299               JUNCTION     0.00     0.01    32.01     1  00:03        0.01
  287300               JUNCTION     0.00     0.00    39.26     1  00:00        0.00
  287301               JUNCTION     0.00     0.00    38.54     1  00:01        0.00
  287302               JUNCTION     0.00     0.00    37.15     1  00:00        0.00
  287303               JUNCTION     0.00     0.00    36.15     1  00:09        0.00
  287304               JUNCTION     0.00     0.01    33.80     1  00:02        0.01
  287305               JUNCTION     0.00     0.01    31.66     1  00:07        0.01
  287306               JUNCTION     0.00     0.01    27.36     1  00:09        0.01
  287307               JUNCTION     0.00     0.02    26.96     1  00:01        0.02
  287308               JUNCTION     0.00     0.01    26.45     1  00:04        0.01
  287309               JUNCTION     0.00     0.01    24.78     1  00:07        0.01
  287310               JUNCTION     0.00     0.02    23.80     1  00:00        0.02
  287311               JUNCTION     0.00     0.00    50.51     1  00:01        0.00
  287312               JUNCTION     0.00     0.01    49.40     1  00:06        0.01
  287313               JUNCTION     0.00     0.00    49.31     1  00:04        0.00
  287314               JUNCTION     0.00     0.00    45.54     1  00:09        0.00
  287315               JUNCTION     0.00     0.00    44.93     1  00:00        0.00
  287316               JUNCTION     0.00     0.00    42.50     1  00:02        0.00
  287317               JUNCTION     0.00     0.01    38.51     1  00:00        0.01
  287318               JUNCTION     0.00     0.01    35.26     1  00:07        0.01
  287319               JUNCTION     0.00     0.01    32.28     1  00:01        0.01
  287320               JUNCTION     0.00     0.01    29.45     1  00:07        0.01
  287321               JUNCTION     0.00     0.00    38.84     1  00:04        0.00
  287322               JUNCTION     0.00     0.00    33.49     1  00:00        0.00
  287323               JUNCTION     0.00     0.01    28.93     1  00:09        0.01
  287324               JUNCTION     0.00     0.01    28.17     1  00:04        0.01
  287325               JUNCTION     0.00     0.01    27.88     1  00:06        0.01
  287326               JUNCTION     0.00     0.00    34.61     1  00:03        0.00
  287327               JUNCTION     0.00     0.00    35.64     1  00:08        0.00
  287328               JUNCTION     0.00     0.00    43.04     1  00:10        0.00
  287329               JUNCTION     0.00     0.00    52.30     1  00:03        0.00
  287330               JUNCTION     0.00     0.00    33.64     1  00:04        0.00
  287331               JUNCTION     0.00     0.00    29.35     1  00:04        0.00
  287332               JUNCTION     0.00     0.00    33.36     1  00:02        0.00
  287333               JUNCTION     0.00     0.00    41.18     1  00:03        0.00
  287334               JUNCTION     0.00     0.01    27.58     1  00:03        0.01
  287335               JUNCTION     0.00     0.00    30.67     1  00:05        0.00
  292737               JUNCTION     0.00     0.01    25.33     1  00:01        0.01
  292738               JUNCTION     0.00     0.00    27.25     1  00:02        0.00
  292739               JUNCTION     0.00     0.00    20.92     1  00:04        0.00
  292740               JUNCTION     0.00     0.00    20.36     1  00:03        0.00
  292741               JUNCTION     0.00     0.00    21.06     1  00:01        0.00
  292742               JUNCTION     0.00     0.00    24.55     1  00:00        0.00
  292743               JUNCTION     0.00     0.00    21.40     1  00:10        0.00
  292744               JUNCTION     0.00     0.00    20.70     1  00:02        0.00
  292745               JUNCTION     0.00     0.02    21.05     1  00:05        0.02
  292746               JUNCTION     0.00     0.00    23.99     1  00:05        0.00
  292747               JUNCTION     0.00     0.00    22.77     1  00:04        0.00
  292748               JUNCTION     0.00     0.00    23.30     1  00:07        0.00
  292749               JUNCTION     0.00     0.00    25.68     1  00:07        0.00
  292750               JUNCTION     0.00     0.00    25.00     1  00:03        0.00
  292751               JUNCTION     0.00     0.00    24.62     1  00:10        0.00
  292752               JUNCTION     0.00     0.00    27.85     1  00:00        0.00
  292753               JUNCTION     0.00     0.00    26.95     1  00:09        0.00
  292754               JUNCTION     0.00     0.00    28.25     1  00:05        0.00
  292755               JUNCTION     0.00     0.00    28.79     1  00:01        0.00
  292756               JUNCTION     0.00     0.00    23.00     1  00:00        0.00
  292757               JUNCTION     0.00     0.00    28.31     1  00:02        0.00
  292758               JUNCTION     0.00     0.00    22.79     1  00:10        0.00
  292759               JUNCTION     0.00     0.00    27.02     1  00:03        0.00
  292760               JUNCTION     0.00     0.00    27.79     1  00:06        0.00
  2_0                  JUNCTION     0.00     0.00    34.23     1  00:04        0.00
  2_1                  JUNCTION     0.00     0.00    35.50     1  00:00        0.00
  2_26                 JUNCTION     0.00     0.00    32.72     1  00:00        0.00
  2_27                 JUNCTION     0.00     0.01    33.05     1  00:03        0.01
  2_29                 JUNCTION     0.02     2.82    13.70     1  00:10        2.82
  2_30                 JUNCTION     0.00     0.01    22.82     1  00:04        0.01
  2_31                 JUNCTION     0.00     0.00    35.62     1  00:02        0.00
  2_32                 JUNCTION     0.00     0.00    24.36     1  00:01        0.00
  2_33                 JUNCTION     0.02     3.45    17.06     1  00:10        3.45
  2_34                 JUNCTION     0.01     1.59    17.06     1  00:10        1.59
  323164               JUNCTION     0.00     0.00    22.12     1  00:05        0.00
  323165               JUNCTION     0.00     0.00    24.74     1  00:09        0.00
  323166               JUNCTION     0.00     0.00    18.71     1  00:00        0.00
  323167               JUNCTION     0.00     0.00    18.51     1  00:07        0.00
  323168               JUNCTION     0.00     0.00    18.84     1  00:00        0.00
  323169               JUNCTION     0.00     0.00    19.35     1  00:02        0.00
  323170               JUNCTION     0.00     0.00    20.76     1  00:01        0.00
  323171               JUNCTION     0.00     0.56    17.06     1  00:10        0.56
  323172               JUNCTION     0.00     0.01    17.38     1  00:08        0.01
  323173               JUNCTION     0.00     0.01    18.23     1  00:08        0.01
  323174               JUNCTION     0.00     0.01    18.95     1  00:09        0.01
  323175               JUNCTION     0.00     0.01    19.62     1  00:01        0.01
  323176               JUNCTION     0.00     0.00    21.35     1  00:09        0.00
  323177               JUNCTION     0.00     0.00    22.27     1  00:09        0.00
  323178               JUNCTION     0.00     0.00    22.49     1  00:01        0.00
  323179               JUNCTION     0.00     0.00    25.17     1  00:06        0.00
  323180               JUNCTION     0.00     0.00    20.72     1  00:00        0.00
  323181               JUNCTION     0.00     0.01    19.05     1  00:00        0.01
  323182               JUNCTION     0.00     0.01    19.64     1  00:08        0.01
  323183               JUNCTION     0.00     0.00    21.31     1  00:09        0.00
  323184               JUNCTION     0.00     0.01    21.85     1  00:00        0.01
  323185               JUNCTION     0.00     0.00    23.01     1  00:03        0.00
  323186               JUNCTION     0.00     0.00    24.03     1  00:09        0.00
  323187               JUNCTION     0.00     0.00    21.47     1  00:00        0.00
  323188               JUNCTION     0.00     0.00    22.23     1  00:06        0.00
  323189               JUNCTION     0.02     2.98    17.06     1  00:10        2.98
  323190               JUNCTION     0.02     2.52    17.06     1  00:10        2.52
  323191               JUNCTION     0.01     1.92    17.06     1  00:10        1.92
  323192               JUNCTION     0.01     1.73    17.06     1  00:10        1.73
  323193               JUNCTION     0.01     1.50    17.06     1  00:10        1.50
  323194               JUNCTION     0.01     1.18    17.06     1  00:10        1.18
  323195               JUNCTION     0.01     0.91    17.06     1  00:10        0.91
  323196               JUNCTION     0.00     0.01    17.73     1  00:09        0.01
  323197               JUNCTION     0.00     0.00    25.42     1  00:00        0.00
  326542               JUNCTION     0.00     0.00    34.12     1  00:01        0.00
  326543               JUNCTION     0.00     0.04    30.17     1  00:07        0.04
  326544               JUNCTION     0.00     0.00    33.01     1  00:07        0.00
  329692               JUNCTION     0.00     0.01    30.93     1  00:05        0.01
  329693               JUNCTION     0.00     0.00    34.52     1  00:02        0.00
  329694               JUNCTION     0.00     0.01    23.99     1  00:08        0.01
  329695               JUNCTION     0.00     0.00    25.31     1  00:02        0.00
  329696               JUNCTION     0.00     0.00    26.01     1  00:08        0.00
  329697               JUNCTION     0.00     0.00    26.84     1  00:01        0.00
  329698               JUNCTION     0.00     0.00    28.24     1  00:07        0.00
  329699               JUNCTION     0.00     0.01    30.48     1  00:00        0.01
  329700               JUNCTION     0.00     0.00    34.47     1  00:04        0.00
  329701               JUNCTION     0.00     0.00    38.33     1  00:08        0.00
  329702               JUNCTION     0.00     0.01    35.99     1  00:02        0.01
  329703               JUNCTION     0.00     0.00    43.96     1  00:02        0.00
  329704               JUNCTION     0.00     0.19    47.77     1  00:00        0.19
  329705               JUNCTION     0.00     0.00    49.92     1  00:08        0.00
  329706               JUNCTION     0.00     0.00    52.19     1  00:07        0.00
  329707               JUNCTION     0.00     0.00    53.20     1  00:03        0.00
  329708               JUNCTION     0.00     0.01    39.41     1  00:00        0.01
  329709               JUNCTION     0.00     0.00    43.45     1  00:00        0.00
  329710               JUNCTION     0.00     0.00    45.41     1  00:02        0.00
  329711               JUNCTION     0.00     0.00    48.92     1  00:01        0.00
  329712               JUNCTION     0.00     0.00    52.89     1  00:00        0.00
  329713               JUNCTION     0.00     0.00    53.84     1  00:05        0.00
  329714               JUNCTION     0.00     0.00    55.81     1  00:01        0.00
  329715               JUNCTION     0.00     0.00    60.55     1  00:05        0.00
  329716               JUNCTION     0.00     0.00    60.94     1  00:01        0.00
  329717               JUNCTION     0.00     0.00    55.78     1  00:07        0.00
  329718               JUNCTION     0.00     0.00    56.61     1  00:07        0.00
  329719               JUNCTION     0.00     0.00    58.63     1  00:05        0.00
  329720               JUNCTION     0.00     0.00    55.03     1  00:07        0.00
  329721               JUNCTION     0.00     0.00    61.42     1  00:00        0.00
  329722               JUNCTION     0.00     0.00    65.03     1  00:05        0.00
  329723               JUNCTION     0.00     0.00    62.15     1  00:01        0.00
  329724               JUNCTION     0.00     0.00    55.20     1  00:00        0.00
  329725               JUNCTION     0.00     0.01    51.81     1  00:01        0.01
  329726               JUNCTION     0.00     0.01    51.62     1  00:00        0.01
  329727               JUNCTION     0.00     0.01    50.33     1  00:04        0.01
  329728               JUNCTION     0.00     0.01    43.30     1  00:03        0.01
  329729               JUNCTION     0.00     0.01    41.14     1  00:00        0.01
  329730               JUNCTION     0.00     0.01    38.29     1  00:06        0.01
  329731               JUNCTION     0.00     0.01    36.90     1  00:02        0.01
  329732               JUNCTION     0.00     0.01    36.13     1  00:05        0.01
  329733               JUNCTION     0.00     0.01    34.29     1  00:00        0.01
  329734               JUNCTION     0.00     0.01    31.57     1  00:02        0.01
  329735               JUNCTION     0.00     0.01    30.92     1  00:04        0.01
  329736               JUNCTION     0.00     0.01    28.53     1  00:07        0.01
  329737               JUNCTION     0.00     0.01    28.21     1  00:09        0.01
  329738               JUNCTION     0.00     0.01    27.01     1  00:08        0.01
  329739               JUNCTION     0.00     0.26    24.62     1  00:00        0.26
  329740               JUNCTION     0.00     0.01    24.35     1  00:01        0.01
  329741               JUNCTION     0.00     0.01    23.77     1  00:04        0.01
  329742               JUNCTION     0.00     0.02    21.29     1  00:01        0.02
  329743               JUNCTION     0.00     0.01    45.33     1  00:01        0.01
  330755               JUNCTION     0.00     0.02    17.28     1  00:00        0.02
  330833               JUNCTION     0.00     0.02    17.45     1  00:02        0.02
  330834               JUNCTION     0.00     0.02    17.64     1  00:05        0.02
  330835               JUNCTION     0.00     0.00    21.38     1  00:05        0.00
  330836               JUNCTION     0.00     0.00    21.83     1  00:03        0.00
  330837               JUNCTION     0.00     0.00    23.71     1  00:01        0.00
  330838               JUNCTION     0.00     0.00    24.53     1  00:09        0.00
  382294               JUNCTION     0.00     0.02    22.02     1  00:06        0.02
  382295               JUNCTION     0.00     0.02    23.39     1  00:01        0.02
  382296               JUNCTION     0.00     0.02    24.71     1  00:05        0.02
  382297               JUNCTION     0.00     0.02    25.31     1  00:03        0.02
  382298               JUNCTION     0.00     0.02    25.77     1  00:05        0.02
  382299               JUNCTION     0.00     0.02    26.52     1  00:01        0.02
  382300               JUNCTION     0.00     0.02    27.34     1  00:08        0.02
  382301               JUNCTION     0.00     0.02    27.99     1  00:07        0.02
  382302               JUNCTION     0.00     0.03    29.23     1  00:08        0.03
  382303               JUNCTION     0.00     0.01    30.15     1  00:08        0.01
  382304               JUNCTION     0.00     0.01    30.65     1  00:02        0.01
  382305               JUNCTION     0.00     0.00    35.10     1  00:04        0.00
  382306               JUNCTION     0.00     0.01    34.89     1  00:09        0.01
  382307               JUNCTION     0.00     0.00    36.82     1  00:03        0.00
  382308               JUNCTION     0.00     0.00    37.10     1  00:09        0.00
  382309               JUNCTION     0.00     0.00    39.20     1  00:01        0.00
  382310               JUNCTION     0.00     0.01    33.95     1  00:01        0.01
  382311               JUNCTION     0.00     0.01    36.28     1  00:05        0.01
  382312               JUNCTION     0.00     0.01    37.21     1  00:01        0.01
  382313               JUNCTION     0.00     0.00    39.61     1  00:04        0.00
  382314               JUNCTION     0.00     0.00    41.26     1  00:00        0.00
  382315               JUNCTION     0.00     0.00    42.67     1  00:07        0.00
  382316               JUNCTION     0.00     0.00    44.55     1  00:08        0.00
  382317               JUNCTION     0.00     0.00    47.02     1  00:06        0.00
  382318               JUNCTION     0.00     0.00    48.99     1  00:09        0.00
  382319               JUNCTION     0.00     0.00    40.79     1  00:05        0.00
  382320               JUNCTION     0.00     0.00    37.85     1  00:07        0.00
  382321               JUNCTION     0.00     0.00    40.70     1  00:06        0.00
  382322               JUNCTION     0.00     0.00    33.55     1  00:00        0.00
  382323               JUNCTION     0.00     0.00    39.79     1  00:00        0.00
  382324               JUNCTION     0.00     0.00    31.14     1  00:00        0.00
  382325               JUNCTION     0.00     0.01    30.23     1  00:01        0.01
  382326               JUNCTION     0.00     0.01    30.85     1  00:07        0.01
  382327               JUNCTION     0.00     0.00    32.56     1  00:01        0.00
  382328               JUNCTION     0.00     0.00    35.79     1  00:00        0.00
  382329               JUNCTION     0.00     0.00    43.89     1  00:01        0.00
  382330               JUNCTION     0.00     0.00    42.88     1  00:05        0.00
  382331               JUNCTION     0.00     0.01    29.33     1  00:07        0.01
  382332               JUNCTION     0.00     0.01    27.00     1  00:06        0.01
  382333               JUNCTION     0.00     0.01    26.48     1  00:08        0.01
  382334               JUNCTION     0.00     0.01    25.12     1  00:01        0.01
  382335               JUNCTION     0.00     0.02    24.98     1  00:07        0.02
  382343               JUNCTION     0.00     0.00    30.20     1  00:01        0.00
  382344               JUNCTION     0.00     0.00    30.80     1  00:07        0.00
  382345               JUNCTION     0.00     0.00    35.43     1  00:09        0.00
  382346               JUNCTION     0.00     0.00    41.49     1  00:02        0.00
  382347               JUNCTION     0.00     0.00    49.08     1  00:09        0.00
  382682               JUNCTION     0.00     0.01    25.52     1  00:00        0.01
  382683               JUNCTION     0.00     0.01    26.54     1  00:07        0.01
  382684               JUNCTION     0.00     0.01    28.94     1  00:09        0.01
  382685               JUNCTION     0.00     0.01    29.73     1  00:04        0.01
  382687               JUNCTION     0.00     0.02    24.74     1  00:10        0.02
  382688               JUNCTION     0.00     0.02    24.67     1  00:06        0.02
  382689               JUNCTION     0.00     0.15    24.35     1  00:01        0.15
  382690               JUNCTION     0.00     0.01    24.38     1  00:08        0.01
  382691               JUNCTION     0.00     0.01    24.57     1  00:06        0.01
  382692               JUNCTION     0.00     0.01    24.81     1  00:05        0.01
  382693               JUNCTION     0.00     0.00    25.76     1  00:09        0.00
  382694               JUNCTION     0.00     0.01    25.98     1  00:03        0.01
  382695               JUNCTION     0.00     0.00    28.03     1  00:02        0.00
  382696               JUNCTION     0.00     0.01    25.00     1  00:00        0.01
  382697               JUNCTION     0.00     0.24    25.23     1  00:01        0.24
  382698               JUNCTION     0.00     0.00    25.51     1  00:10        0.00
  382699               JUNCTION     0.00     0.00    26.59     1  00:07        0.00
  382700               JUNCTION     0.00     0.00    30.52     1  00:08        0.00
  385106               JUNCTION     0.00     0.00    18.53     1  00:04        0.00
  385107               JUNCTION     0.00     0.01    18.22     1  00:07        0.01
  385108               JUNCTION     0.00     0.01    20.12     1  00:04        0.01
  385109               JUNCTION     0.00     0.00    22.12     1  00:01        0.00
  385110               JUNCTION     0.00     0.01    22.49     1  00:09        0.01
  385111               JUNCTION     0.00     0.01    22.93     1  00:00        0.01
  385112               JUNCTION     0.00     0.00    23.38     1  00:03        0.00
  385113               JUNCTION     0.00     0.01    17.99     1  00:01        0.01
  385114               JUNCTION     0.00     0.00    17.85     1  00:00        0.00
  385115               JUNCTION     0.00     0.01    15.61     1  00:01        0.01
  385116               JUNCTION     0.00     0.01    17.16     1  00:09        0.01
  385117               JUNCTION     0.00     0.01    19.47     1  00:00        0.01
  385118               JUNCTION     0.00     0.01    19.76     1  00:04        0.01
  385119               JUNCTION     0.00     0.01    19.98     1  00:08        0.01
  385120               JUNCTION     0.00     0.00    20.93     1  00:05        0.00
  385121               JUNCTION     0.00     0.02    17.14     1  00:02        0.02
  385122               JUNCTION     0.02     2.86    13.70     1  00:10        2.86
  385123               JUNCTION     0.02     2.98    13.70     1  00:10        2.98
  385124               JUNCTION     0.01     1.92    13.70     1  00:10        1.92
  385125               JUNCTION     0.00     0.02    15.02     1  00:05        0.02
  385126               JUNCTION     0.00     0.02    15.50     1  00:04        0.02
  385127               JUNCTION     0.00     0.02    15.66     1  00:09        0.02
  385128               JUNCTION     0.00     0.02    15.96     1  00:08        0.02
  385129               JUNCTION     0.00     0.02    16.52     1  00:07        0.02
  385130               JUNCTION     0.00     0.02    16.90     1  00:00        0.02
  386447               JUNCTION     0.00     0.00    30.62     1  00:00        0.00
  386448               JUNCTION     0.00     0.00    43.73     1  00:02        0.00
  386449               JUNCTION     0.00     0.00    41.92     1  00:05        0.00
  386450               JUNCTION     0.00     0.00    46.61     1  00:00        0.00
  386451               JUNCTION     0.00     0.00    46.77     1  00:01        0.00
  386453               JUNCTION     0.00     0.00    29.54     1  00:04        0.00
  386454               JUNCTION     0.00     0.00    29.19     1  00:07        0.00
  386455               JUNCTION     0.00     0.00    32.52     1  00:05        0.00
  386456               JUNCTION     0.00     0.00    31.42     1  00:01        0.00
  386457               JUNCTION     0.00     0.00    28.40     1  00:04        0.00
  386458               JUNCTION     0.00     0.00    31.45     1  00:01        0.00
  386459               JUNCTION     0.00     0.00    34.71     1  00:05        0.00
  386461               JUNCTION     0.00     0.01    29.45     1  00:09        0.01
  386462               JUNCTION     0.00     0.00    31.48     1  00:07        0.00
  386463               JUNCTION     0.00     0.00    34.21     1  00:07        0.00
  386464               JUNCTION     0.00     0.01    33.89     1  00:06        0.01
  386465               JUNCTION     0.00     0.00    38.73     1  00:01        0.00
  386466               JUNCTION     0.00     0.01    31.24     1  00:01        0.01
  386467               JUNCTION     0.00     0.01    33.18     1  00:04        0.01
  386468               JUNCTION     0.00     0.01    33.53     1  00:09        0.01
  386469               JUNCTION     0.00     0.00    34.20     1  00:04        0.00
  386470               JUNCTION     0.00     0.00    38.27     1  00:08        0.00
  386471               JUNCTION     0.00     0.00    43.30     1  00:02        0.00
  394083               JUNCTION     0.00     0.01    21.40     1  00:05        0.01
  394084               JUNCTION     0.00     0.00    21.71     1  00:04        0.00
  394085               JUNCTION     0.00     0.00    22.67     1  00:06        0.00
  394306               JUNCTION     0.02     2.67    13.70     1  00:10        2.67
  394307               JUNCTION     0.02     2.56    13.70     1  00:10        2.56
  394308               JUNCTION     0.00     0.00    15.80     1  00:03        0.00
  394309               JUNCTION     0.02     2.40    13.70     1  00:10        2.40
  394310               JUNCTION     0.01     1.78    13.70     1  00:10        1.78
  394311               JUNCTION     0.01     1.26    13.70     1  00:10        1.26
  394312               JUNCTION     0.00     0.00    16.03     1  00:08        0.00
  394313               JUNCTION     0.01     1.07    13.70     1  00:10        1.07
  394314               JUNCTION     0.01     0.94    13.70     1  00:10        0.94
  394315               JUNCTION     0.00     0.00    15.87     1  00:07        0.00
  394316               JUNCTION     0.00     0.00    16.73     1  00:09        0.00
  394317               JUNCTION     0.00     0.70    13.70     1  00:10        0.70
  394318               JUNCTION     0.00     0.16    13.70     1  00:10        0.16
  394319               JUNCTION     0.00     0.00    14.10     1  00:08        0.00
  394320               JUNCTION     0.00     0.00    14.50     1  00:00        0.00
  394321               JUNCTION     0.00     0.00    15.40     1  00:01        0.00
  394322               JUNCTION     0.01     2.09    13.70     1  00:10        2.09
  394323               JUNCTION     0.00     0.00    15.78     1  00:09        0.00
  394324               JUNCTION     0.00     0.01    14.47     1  00:04        0.01
  394325               JUNCTION     0.00     0.00    16.38     1  00:05        0.00
  394720               JUNCTION     0.00     0.00    40.16     1  00:08        0.00
  395133               JUNCTION     0.00     0.00    41.25     1  00:00        0.00
  395135               JUNCTION     0.00     0.01    28.29     1  00:08        0.01
  395136               JUNCTION     0.00     0.00    35.37     1  00:05        0.00
  395137               JUNCTION     0.00     0.00    36.80     1  00:00        0.00
  395138               JUNCTION     0.00     0.00    42.15     1  00:04        0.00
  395139               JUNCTION     0.00     0.00    30.00     1  00:07        0.00
  395140               JUNCTION     0.00     0.00    38.34     1  00:09        0.00
  395141               JUNCTION     0.00     0.00    40.80     1  00:01        0.00
  395142               JUNCTION     0.00     0.01    27.78     1  00:04        0.01
  395143               JUNCTION     0.00     0.00    32.97     1  00:06        0.00
  395144               JUNCTION     0.00     0.00    36.40     1  00:01        0.00
  395145               JUNCTION     0.00     0.00    37.28     1  00:08        0.00
  395146               JUNCTION     0.00     0.00    41.35     1  00:03        0.00
  395147               JUNCTION     0.00     0.00    43.91     1  00:02        0.00
  395148               JUNCTION     0.00     0.00    44.98     1  00:07        0.00
  395149               JUNCTION     0.00     0.00    46.05     1  00:08        0.00
  395150               JUNCTION     0.00     0.00    27.37     1  00:04        0.00
  395151               JUNCTION     0.00     0.00    33.96     1  00:00        0.00
  395152               JUNCTION     0.00     0.00    34.96     1  00:04        0.00
  395153               JUNCTION     0.00     0.00    29.14     1  00:09        0.00
  395154               JUNCTION     0.00     0.01    29.41     1  00:03        0.01
  395155               JUNCTION     0.00     0.00    29.92     1  00:04        0.00
  395156               JUNCTION     0.00     0.02    21.04     1  00:05        0.02
  395157               JUNCTION     0.00     0.02    21.83     1  00:09        0.02
  395158               JUNCTION     0.00     0.02    22.44     1  00:01        0.02
  395159               JUNCTION     0.00     0.02    22.83     1  00:00        0.02
  395160               JUNCTION     0.00     0.02    23.71     1  00:07        0.02
  395161               JUNCTION     0.00     0.03    23.94     1  00:07        0.03
  395162               JUNCTION     0.00     0.02    24.12     1  00:04        0.02
  395163               JUNCTION     0.00     0.02    24.62     1  00:05        0.02
  395164               JUNCTION     0.00     0.02    24.85     1  00:04        0.02
  395165               JUNCTION     0.00     0.02    25.64     1  00:03        0.02
  395166               JUNCTION     0.00     0.01    26.59     1  00:03        0.01
  395167               JUNCTION     0.00     0.00    34.16     1  00:00        0.00
  395168               JUNCTION     0.00     0.01    34.53     1  00:00        0.01
  395169               JUNCTION     0.00     0.01    34.78     1  00:05        0.01
  395170               JUNCTION     0.00     0.01    34.96     1  00:00        0.01
  395171               JUNCTION     0.00     0.01    35.22     1  00:07        0.01
  395172               JUNCTION     0.00     0.00    42.78     1  00:08        0.00
  396829               JUNCTION     0.00     0.00    26.24     1  00:07        0.00
  396830               JUNCTION     0.00     0.00    27.63     1  00:00        0.00
  396831               JUNCTION     0.00     0.00    22.20     1  00:09        0.00
  396832               JUNCTION     0.00     0.00    23.54     1  00:03        0.00
  396833               JUNCTION     0.00     0.00    27.65     1  00:07        0.00
  396834               JUNCTION     0.00     0.00    29.15     1  00:05        0.00
  396835               JUNCTION     0.00     0.00    26.93     1  00:05        0.00
  396836               JUNCTION     0.00     0.00    28.35     1  00:04        0.00
  396837               JUNCTION     0.00     0.02    17.82     1  00:08        0.02
  396838               JUNCTION     0.00     0.00    20.97     1  00:00        0.00
  396839               JUNCTION     0.00     0.00    20.55     1  00:09        0.00
  396840               JUNCTION     0.00     0.00    24.38     1  00:01        0.00
  396841               JUNCTION     0.00     0.00    24.86     1  00:08        0.00
  396842               JUNCTION     0.00     0.02    18.46     1  00:02        0.02
  396843               JUNCTION     0.00     0.02    18.90     1  00:09        0.02
  396844               JUNCTION     0.00     0.00    20.03     1  00:00        0.00
  396845               JUNCTION     0.00     0.00    22.79     1  00:03        0.00
  396846               JUNCTION     0.00     0.02    19.40     1  00:04        0.02
  396847               JUNCTION     0.00     0.01    19.63     1  00:02        0.01
  396848               JUNCTION     0.00     0.00    21.01     1  00:09        0.00
  396849               JUNCTION     0.00     0.01    19.91     1  00:00        0.01
  396850               JUNCTION     0.00     0.01    20.61     1  00:07        0.01
  396851               JUNCTION     0.00     0.00    22.57     1  00:10        0.00
  396852               JUNCTION     0.00     0.00    23.19     1  00:03        0.00
  396853               JUNCTION     0.00     0.00    21.07     1  00:02        0.00
  396854               JUNCTION     0.00     0.01    21.32     1  00:01        0.01
  396855               JUNCTION     0.00     0.00    25.65     1  00:03        0.00
  396856               JUNCTION     0.00     0.00    27.75     1  00:00        0.00
  396857               JUNCTION     0.00     0.00    28.52     1  00:09        0.00
  396858               JUNCTION     0.00     0.01    20.39     1  00:03        0.01
  396859               JUNCTION     0.00     0.01    20.57     1  00:08        0.01
  396860               JUNCTION     0.00     0.01    21.07     1  00:07        0.01
  396861               JUNCTION     0.00     0.01    21.25     1  00:02        0.01
  396862               JUNCTION     0.00     0.00    23.32     1  00:10        0.00
  396863               JUNCTION     0.00     0.00    23.62     1  00:03        0.00
  396864               JUNCTION     0.00     0.00    25.25     1  00:08        0.00
  396865               JUNCTION     0.00     0.00    29.87     1  00:03        0.00
  396866               JUNCTION     0.00     0.02    19.06     1  00:04        0.02
  396867               JUNCTION     0.00     0.01    19.26     1  00:04        0.01
  396868               JUNCTION     0.00     0.01    19.93     1  00:01        0.01
  396869               JUNCTION     0.00     0.01    20.91     1  00:00        0.01
  396870               JUNCTION     0.00     0.01    22.10     1  00:02        0.01
  396871               JUNCTION     0.00     0.00    26.33     1  00:09        0.00
  396872               JUNCTION     0.00     0.01    22.28     1  00:04        0.01
  396873               JUNCTION     0.00     0.01    22.62     1  00:06        0.01
  396874               JUNCTION     0.00     0.01    23.43     1  00:08        0.01
  396875               JUNCTION     0.00     0.00    23.89     1  00:00        0.00
  396876               JUNCTION     0.00     0.00    27.24     1  00:09        0.00
  396877               JUNCTION     0.00     0.00    29.28     1  00:00        0.00
  396878               JUNCTION     0.00     0.01    23.64     1  00:09        0.01
  396879               JUNCTION     0.00     0.00    25.47     1  00:08        0.00
  396880               JUNCTION     0.00     0.00    24.37     1  00:00        0.00
  396881               JUNCTION     0.00     0.00    28.54     1  00:01        0.00
  398006               JUNCTION     0.00     0.01     8.88     1  00:08        0.01
  398007               JUNCTION     0.00     0.01     9.56     1  00:07        0.01
  398008               JUNCTION     0.00     0.01     9.85     1  00:01        0.01
  398009               JUNCTION     0.00     0.01    10.04     1  00:00        0.01
  398010               JUNCTION     0.00     0.01    10.45     1  00:03        0.01
  398011               JUNCTION     0.00     0.00    10.94     1  00:03        0.00
  398012               JUNCTION     0.00     0.00    16.34     1  00:05        0.00
  398015               JUNCTION     0.00     0.00    11.88     1  00:04        0.00
  398017               JUNCTION     0.00     0.01     9.47     1  00:01        0.01
  398018               JUNCTION     0.00     0.01    10.83     1  00:09        0.01
  398019               JUNCTION     0.00     0.00    14.63     1  00:01        0.00
  398020               JUNCTION     0.00     0.00    18.78     1  00:08        0.00
  398021               JUNCTION     0.00     0.00    23.27     1  00:00        0.00
  398022               JUNCTION     0.00     0.00    24.33     1  00:05        0.00
  398023               JUNCTION     0.00     0.35     6.99     1  00:10        0.35
  398024               JUNCTION     0.00     0.00    10.80     1  00:03        0.00
  398025               JUNCTION     0.02     2.63     6.99     1  00:10        2.63
  398026               JUNCTION     0.00     0.01     8.60     1  00:02        0.01
  398027               JUNCTION     0.00     0.00    12.41     1  00:08        0.00
  398028               JUNCTION     0.00     0.01     9.31     1  00:01        0.01
  398029               JUNCTION     0.00     0.01    10.44     1  00:02        0.01
  398030               JUNCTION     0.00     0.01    14.90     1  00:05        0.01
  398031               JUNCTION     0.00     0.00    17.80     1  00:02        0.00
  398032               JUNCTION     0.00     0.01    18.56     1  00:00        0.01
  398033               JUNCTION     0.00     0.00    20.92     1  00:09        0.00
  398034               JUNCTION     0.00     0.00    22.41     1  00:02        0.00
  398035               JUNCTION     0.00     0.00    21.62     1  00:00        0.00
  398036               JUNCTION     0.00     0.00    23.09     1  00:09        0.00
  398037               JUNCTION     0.00     0.00    24.79     1  00:00        0.00
  398214               JUNCTION     0.00     0.02    17.57     1  00:01        0.02
  398215               JUNCTION     0.00     0.02    17.91     1  00:01        0.02
  398216               JUNCTION     0.00     0.01    18.60     1  00:04        0.01
  398217               JUNCTION     0.00     0.02    18.76     1  00:00        0.02
  398218               JUNCTION     0.00     0.01    18.89     1  00:00        0.01
  398219               JUNCTION     0.00     0.01    19.05     1  00:05        0.01
  398220               JUNCTION     0.00     0.01    19.46     1  00:04        0.01
  398221               JUNCTION     0.00     0.01    20.01     1  00:00        0.01
  398222               JUNCTION     0.00     0.00    22.99     1  00:08        0.00
  398223               JUNCTION     0.00     0.00    25.85     1  00:02        0.00
  398224               JUNCTION     0.00     0.00    27.08     1  00:04        0.00
  398225               JUNCTION     0.00     0.01    20.37     1  00:06        0.01
  398226               JUNCTION     0.00     0.00    24.58     1  00:05        0.00
  398227               JUNCTION     0.00     0.00    19.79     1  00:04        0.00
  398228               JUNCTION     0.00     0.00    20.62     1  00:04        0.00
  398229               JUNCTION     0.00     0.01    19.31     1  00:04        0.01
  398230               JUNCTION     0.00     0.01    19.99     1  00:09        0.01
  398231               JUNCTION     0.00     0.00    27.02     1  00:09        0.00
  398232               JUNCTION     0.00     0.00    25.66     1  00:09        0.00
  398233               JUNCTION     0.00     0.00    27.05     1  00:04        0.00
  398234               JUNCTION     0.00     0.01    21.41     1  00:04        0.01
  398235               JUNCTION     0.00     0.00    24.73     1  00:01        0.00
  398236               JUNCTION     0.00     0.00    22.64     1  00:05        0.00
  398237               JUNCTION     0.00     0.00    27.72     1  00:10        0.00
  398238               JUNCTION     0.00     0.00    29.51     1  00:00        0.00
  398239               JUNCTION     0.00     0.01    22.98     1  00:07        0.01
  398240               JUNCTION     0.00     0.00    25.98     1  00:03        0.00
  398241               JUNCTION     0.00     0.00    29.57     1  00:07        0.00
  398242               JUNCTION     0.00     0.00    30.63     1  00:01        0.00
  398243               JUNCTION     0.00     0.00    31.32     1  00:08        0.00
  400785               JUNCTION     0.00     0.01    18.75     1  00:09        0.01
  400786               JUNCTION     0.00     0.00    21.82     1  00:06        0.00
  400787               JUNCTION     0.00     0.00    23.22     1  00:08        0.00
  400788               JUNCTION     0.00     0.00    24.68     1  00:02        0.00
  400789               JUNCTION     0.00     0.71    16.78     1  00:10        0.71
  400790               JUNCTION     0.00     0.36    16.78     1  00:10        0.36
  400791               JUNCTION     0.00     0.17    16.78     1  00:10        0.17
  400792               JUNCTION     0.00     0.02    16.85     1  00:07        0.02
  400793               JUNCTION     0.00     0.02    17.00     1  00:02        0.02
  400794               JUNCTION     0.00     0.02    17.50     1  00:09        0.02
  400795               JUNCTION     0.00     0.02    17.24     1  00:02        0.02
  400796               JUNCTION     0.00     0.01    19.60     1  00:04        0.01
  400797               JUNCTION     0.00     0.00    26.74     1  00:06        0.00
  400798               JUNCTION     0.00     0.00    27.32     1  00:01        0.00
  400799               JUNCTION     0.00     0.00    28.27     1  00:06        0.00
  400800               JUNCTION     0.00     0.00    20.07     1  00:07        0.00
  400801               JUNCTION     0.00     0.00    20.39     1  00:01        0.00
  400802               JUNCTION     0.00     0.00    21.84     1  00:09        0.00
  400803               JUNCTION     0.02     3.24    16.78     1  00:10        3.24
  400804               JUNCTION     0.02     2.81    16.78     1  00:10        2.81
  400805               JUNCTION     0.02     2.56    16.78     1  00:10        2.56
  400806               JUNCTION     0.00     0.01    17.03     1  00:05        0.01
  400807               JUNCTION     0.00     0.01    17.36     1  00:07        0.01
  400808               JUNCTION     0.00     0.01    17.55     1  00:06        0.01
  400809               JUNCTION     0.00     0.01    17.69     1  00:05        0.01
  400810               JUNCTION     0.00     0.01    17.79     1  00:07        0.01
  400811               JUNCTION     0.00     0.01    18.11     1  00:04        0.01
  400812               JUNCTION     0.00     0.01    18.30     1  00:02        0.01
  400813               JUNCTION     0.00     0.00    24.61     1  00:06        0.00
  400814               JUNCTION     0.00     0.00    26.59     1  00:10        0.00
  405390               JUNCTION     0.00     0.01    27.74     1  00:01        0.01
  405391               JUNCTION     0.00     0.00    30.11     1  00:09        0.00
  405392               JUNCTION     0.00     0.00    33.62     1  00:04        0.00
  405393               JUNCTION     0.00     0.01    26.32     1  00:04        0.01
  405394               JUNCTION     0.00     0.01    27.35     1  00:09        0.01
  405395               JUNCTION     0.00     0.01    28.15     1  00:02        0.01
  405396               JUNCTION     0.00     0.00    34.14     1  00:09        0.00
  405397               JUNCTION     0.00     0.00    37.17     1  00:08        0.00
  405398               JUNCTION     0.00     0.00    29.91     1  00:02        0.00
  405399               JUNCTION     0.00     0.00    29.30     1  00:04        0.00
  405400               JUNCTION     0.00     0.00    31.46     1  00:00        0.00
  405401               JUNCTION     0.00     0.00    32.02     1  00:00        0.00
  405402               JUNCTION     0.00     0.00    32.16     1  00:00        0.00
  405403               JUNCTION     0.00     0.02    26.01     1  00:03        0.02
  405404               JUNCTION     0.00     0.01    26.85     1  00:02        0.01
  405405               JUNCTION     0.00     0.01    27.62     1  00:00        0.01
  405406               JUNCTION     0.00     0.01    29.95     1  00:02        0.01
  405407               JUNCTION     0.00     0.01    31.16     1  00:06        0.01
  405408               JUNCTION     0.00     0.01    33.83     1  00:05        0.01
  405409               JUNCTION     0.00     0.01    34.41     1  00:08        0.01
  405410               JUNCTION     0.00     0.00    38.77     1  00:02        0.00
  405411               JUNCTION     0.00     0.00    35.29     1  00:09        0.00
  405412               JUNCTION     0.00     0.00    38.48     1  00:09        0.00
  405413               JUNCTION     0.00     0.00    34.48     1  00:01        0.00
  405414               JUNCTION     0.00     0.00    33.92     1  00:04        0.00
  405415               JUNCTION     0.00     0.00    34.12     1  00:01        0.00
  405419               JUNCTION     0.00     0.00    42.24     1  00:05        0.00
  410188               JUNCTION     0.00     0.01    30.57     1  00:07        0.01
  410189               JUNCTION     0.00     0.00    28.27     1  00:04        0.00
  410190               JUNCTION     0.00     0.01    26.90     1  00:00        0.01
  410191               JUNCTION     0.00     0.01    31.75     1  00:03        0.01
  410192               JUNCTION     0.00     0.00    33.72     1  00:07        0.00
  419730               JUNCTION     0.00     0.01    27.25     1  00:05        0.01
  419731               JUNCTION     0.00     0.00    29.24     1  00:05        0.00
  419732               JUNCTION     0.00     0.00    34.67     1  00:08        0.00
  419733               JUNCTION     0.00     0.00    36.70     1  00:07        0.00
  419734               JUNCTION     0.00     0.01    30.35     1  00:05        0.01
  419735               JUNCTION     0.00     0.00    33.45     1  00:01        0.00
  419736               JUNCTION     0.00     0.00    35.47     1  00:00        0.00
  419737               JUNCTION     0.00     0.00    36.26     1  00:08        0.00
  419738               JUNCTION     0.00     0.00    38.31     1  00:03        0.00
  419739               JUNCTION     0.00     0.00    36.51     1  00:02        0.00
  419740               JUNCTION     0.00     0.00    35.36     1  00:05        0.00
  419741               JUNCTION     0.00     0.00    36.34     1  00:07        0.00
  419742               JUNCTION     0.00     0.00    26.88     1  00:04        0.00
  419743               JUNCTION     0.00     0.00    28.30     1  00:02        0.00
  419744               JUNCTION     0.00     0.00    30.84     1  00:09        0.00
  421157               JUNCTION     0.00     0.00    28.54     1  00:09        0.00
  421158               JUNCTION     0.00     0.00    31.83     1  00:08        0.00
  421159               JUNCTION     0.00     0.00    35.92     1  00:07        0.00
  421160               JUNCTION     0.00     0.00    26.83     1  00:08        0.00
  421161               JUNCTION     0.00     0.00    34.84     1  00:08        0.00
  421162               JUNCTION     0.00     0.00    28.36     1  00:07        0.00
  421163               JUNCTION     0.00     0.01    30.23     1  00:04        0.01
  421164               JUNCTION     0.00     0.01    30.87     1  00:07        0.01
  421165               JUNCTION     0.00     0.01    31.15     1  00:04        0.01
  421166               JUNCTION     0.00     0.01    31.42     1  00:07        0.01
  421167               JUNCTION     0.00     0.00    34.40     1  00:05        0.00
  421168               JUNCTION     0.00     0.00    34.83     1  00:00        0.00
  421169               JUNCTION     0.00     0.00    35.81     1  00:04        0.00
  424818               JUNCTION     0.00     0.00    35.84     1  00:07        0.00
  424819               JUNCTION     0.00     0.00    41.39     1  00:02        0.00
  424821               JUNCTION     0.00     0.05    42.55     1  00:01        0.05
  424822               JUNCTION     0.00     0.00    42.57     1  00:06        0.00
  424823               JUNCTION     0.00     0.00    42.78     1  00:01        0.00
  424824               JUNCTION     0.01     0.99    39.76     1  00:10        0.99
  46640                JUNCTION     0.00     0.00    46.42     1  00:03        0.00
  46641                JUNCTION     0.00     0.00    40.38     1  00:08        0.00
  46642                JUNCTION     0.00     0.01    39.46     1  00:04        0.01
  46643                JUNCTION     0.00     0.01    38.82     1  00:01        0.01
  46644                JUNCTION     0.00     0.00    43.86     1  00:08        0.00
  46645                JUNCTION     0.00     0.00    41.88     1  00:01        0.00
  46646                JUNCTION     0.00     0.00    39.60     1  00:08        0.00
  46647                JUNCTION     0.00     0.01    35.34     1  00:08        0.01
  46648                JUNCTION     0.00     0.01    35.04     1  00:00        0.01
  46649                JUNCTION     0.00     0.01    34.58     1  00:05        0.01
  46650                JUNCTION     0.00     0.00    33.98     1  00:03        0.00
  46651                JUNCTION     0.00     0.00    33.47     1  00:06        0.00
  46652                JUNCTION     0.00     0.01    30.72     1  00:04        0.01
  46653                JUNCTION     0.00     0.01    30.17     1  00:09        0.01
  46654                JUNCTION     0.00     0.00    40.68     1  00:09        0.00
  46655                JUNCTION     0.00     0.00    36.21     1  00:01        0.00
  46656                JUNCTION     0.00     0.00    42.98     1  00:05        0.00
  46657                JUNCTION     0.00     0.00    36.23     1  00:07        0.00
  46658                JUNCTION     0.00     0.00    33.36     1  00:03        0.00
  46659                JUNCTION     0.00     0.00    40.58     1  00:05        0.00
  46660                JUNCTION     0.00     0.00    38.12     1  00:06        0.00
  46661                JUNCTION     0.00     0.00    36.61     1  00:03        0.00
  46662                JUNCTION     0.00     0.00    36.20     1  00:10        0.00
  46663                JUNCTION     0.00     0.00    41.39     1  00:00        0.00
  46664                JUNCTION     0.00     0.00    40.80     1  00:02        0.00
  46665                JUNCTION     0.00     0.04    35.39     1  00:01        0.04
  46666                JUNCTION     0.00     0.00    30.30     1  00:02        0.00
  46667                JUNCTION     0.00     0.01    28.54     1  00:06        0.01
  46668                JUNCTION     0.00     0.01    26.91     1  00:07        0.01
  46669                JUNCTION     0.00     0.01    26.59     1  00:00        0.01
  46670                JUNCTION     0.00     0.00    30.12     1  00:01        0.00
  46671                JUNCTION     0.00     0.00    38.18     1  00:03        0.00
  46672                JUNCTION     0.00     0.00    34.20     1  00:04        0.00
  46673                JUNCTION     0.00     0.01    33.57     1  00:09        0.01
  46674                JUNCTION     0.00     0.01    29.41     1  00:01        0.01
  46675                JUNCTION     0.00     0.02    25.99     1  00:00        0.02
  46676                JUNCTION     0.00     0.02    25.62     1  00:02        0.02
  46677                JUNCTION     0.00     0.01    38.11     1  00:02        0.01
  46678                JUNCTION     0.00     0.01    35.61     1  00:06        0.01
  46679                JUNCTION     0.00     0.01    35.24     1  00:04        0.01
  46680                JUNCTION     0.00     0.00    35.97     1  00:04        0.00
  46681                JUNCTION     0.00     0.00    36.15     1  00:09        0.00
  46682                JUNCTION     0.00     0.00    34.94     1  00:04        0.00
  46683                JUNCTION     0.00     0.00    33.18     1  00:04        0.00
  46684                JUNCTION     0.00     0.01    25.16     1  00:09        0.01
  46685                JUNCTION     0.00     0.00    39.02     1  00:02        0.00
  46686                JUNCTION     0.00     0.01    38.44     1  00:04        0.01
  46687                JUNCTION     0.00     0.00    39.48     1  00:02        0.00
  46688                JUNCTION     0.00     0.00    37.13     1  00:02        0.00
  46689                JUNCTION     0.00     0.00    39.34     1  00:02        0.00
  46690                JUNCTION     0.00     0.00    38.27     1  00:09        0.00
  46691                JUNCTION     0.00     0.00    33.03     1  00:03        0.00
  46692                JUNCTION     0.00     0.01    32.82     1  00:05        0.01
  46693                JUNCTION     0.00     0.01    32.30     1  00:01        0.01
  46694                JUNCTION     0.00     0.01    30.71     1  00:08        0.01
  46695                JUNCTION     0.00     0.01    29.63     1  00:08        0.01
  46696                JUNCTION     0.00     0.01    29.38     1  00:08        0.01
  46697                JUNCTION     0.00     0.01    29.15     1  00:09        0.01
  46698                JUNCTION     0.00     0.01    32.51     1  00:07        0.01
  46699                JUNCTION     0.00     0.00    33.32     1  00:04        0.00
  46700                JUNCTION     0.00     0.00    33.21     1  00:00        0.00
  46701                JUNCTION     0.00     0.01    38.39     1  00:06        0.01
  46702                JUNCTION     0.00     0.01    37.93     1  00:01        0.01
  46703                JUNCTION     0.00     0.00    37.48     1  00:09        0.00
  46704                JUNCTION     0.00     0.01    34.46     1  00:06        0.01
  46705                JUNCTION     0.00     0.01    31.49     1  00:00        0.01
  46706                JUNCTION     0.00     0.01    30.78     1  00:02        0.01
  46707                JUNCTION     0.00     0.05    28.89     1  00:07        0.05
  46708                JUNCTION     0.00     0.01    29.56     1  00:06        0.01
  46709                JUNCTION     0.00     0.01    29.05     1  00:05        0.01
  46710                JUNCTION     0.00     0.00    28.64     1  00:03        0.00
  46711                JUNCTION     0.00     0.00    24.77     1  00:07        0.00
  46712                JUNCTION     0.00     0.01    23.40     1  00:08        0.01
  46713                JUNCTION     0.00     0.28    21.89     1  00:07        0.28
  46714                JUNCTION     0.00     0.03    21.71     1  00:05        0.03
  46715                JUNCTION     0.00     0.04    23.22     1  00:01        0.04
  46716                JUNCTION     0.00     0.02    23.09     1  00:07        0.02
  46717                JUNCTION     0.00     0.03    22.86     1  00:06        0.03
  46718                JUNCTION     0.00     0.02    22.67     1  00:07        0.02
  46719                JUNCTION     0.00     0.02    22.40     1  00:04        0.02
  46720                JUNCTION     0.00     0.00    36.26     1  00:00        0.00
  46721                JUNCTION     0.00     0.00    33.59     1  00:09        0.00
  48836                JUNCTION     0.00     0.00    32.63     1  00:04        0.00
  48837                JUNCTION     0.00     0.00    31.95     1  00:01        0.00
  48838                JUNCTION     0.00     0.01    30.01     1  00:04        0.01
  48839                JUNCTION     0.00     0.01    29.58     1  00:09        0.01
  48840                JUNCTION     0.00     0.01    28.38     1  00:07        0.01
  48841                JUNCTION     0.00     0.01    28.51     1  00:00        0.01
  48842                JUNCTION     0.00     0.00    32.06     1  00:01        0.00
  48843                JUNCTION     0.00     0.00    32.67     1  00:07        0.00
  48844                JUNCTION     0.00     0.00    38.12     1  00:09        0.00
  48845                JUNCTION     0.00     0.00    37.38     1  00:04        0.00
  48846                JUNCTION     0.00     0.00    30.61     1  00:08        0.00
  48847                JUNCTION     0.00     0.27    28.52     1  00:01        0.27
  48848                JUNCTION     0.00     0.01    26.38     1  00:09        0.01
  48849                JUNCTION     0.00     0.01    27.96     1  00:02        0.01
  48850                JUNCTION     0.00     0.00    42.93     1  00:06        0.00
  48851                JUNCTION     0.00     0.00    40.89     1  00:04        0.00
  48852                JUNCTION     0.00     0.00    35.67     1  00:02        0.00
  48853                JUNCTION     0.00     0.00    33.14     1  00:00        0.00
  48854                JUNCTION     0.00     0.02    25.56     1  00:00        0.02
  48855                JUNCTION     0.00     0.01    25.39     1  00:01        0.01
  48856                JUNCTION     0.00     0.01    24.53     1  00:07        0.01
  48857                JUNCTION     0.00     0.01    24.79     1  00:03        0.01
  48858                JUNCTION     0.00     0.00    32.20     1  00:00        0.00
  48859                JUNCTION     0.00     0.01    26.59     1  00:03        0.01
  48860                JUNCTION     0.00     0.01    23.69     1  00:01        0.01
  48861                JUNCTION     0.00     0.00    27.88     1  00:06        0.00
  48862                JUNCTION     0.00     0.00    35.64     1  00:04        0.00
  48863                JUNCTION     0.00     0.00    35.92     1  00:02        0.00
  48864                JUNCTION     0.00     0.00    35.32     1  00:10        0.00
  48865                JUNCTION     0.00     0.00    33.94     1  00:07        0.00
  48866                JUNCTION     0.00     0.01    30.16     1  00:00        0.01
  48867                JUNCTION     0.00     0.01    29.78     1  00:08        0.01
  48868                JUNCTION     0.00     0.11    23.09     1  00:01        0.11
  49524                JUNCTION     0.00     0.00    30.98     1  00:09        0.00
  49525                JUNCTION     0.00     0.01    26.80     1  00:01        0.01
  49526                JUNCTION     0.00     0.01    26.47     1  00:04        0.01
  49527                JUNCTION     0.00     0.01    26.01     1  00:09        0.01
  49528                JUNCTION     0.00     0.01    24.48     1  00:02        0.01
  49529                JUNCTION     0.00     0.01    23.89     1  00:02        0.01
  49530                JUNCTION     0.00     0.01    22.25     1  00:04        0.01
  49531                JUNCTION     0.00     0.00    39.73     1  00:05        0.00
  49532                JUNCTION     0.00     0.00    38.00     1  00:03        0.00
  49533                JUNCTION     0.00     0.00    36.67     1  00:00        0.00
  49534                JUNCTION     0.00     0.00    34.80     1  00:01        0.00
[...]
  401203                  2.61   0.00  0.00  0.00  0.00  0.00  0.00  0.01  0.00  0.00
  401204                  1.00   0.00  0.00  0.00  0.00  0.00  0.00  0.01  0.00  0.00
  401205                  1.19   0.00  0.00  0.00  0.00  0.00  0.00  0.01  0.00  0.00
  401206                  1.00   0.00  0.00  0.00  0.00  0.00  0.00  0.01  0.00  0.00
  401208                  1.94   0.00  0.00  0.00  0.00  0.00  0.00  0.01  0.00  0.00
  401209                  1.58   0.00  0.00  0.00  0.00  0.00  0.00  0.01  0.00  0.00
  404615                  4.06   0.00  0.00  0.00  0.01  0.00  0.00  0.00  0.01  0.00
  405730                  1.00   0.00  0.00  0.00  0.00  0.00  0.00  0.01  0.00  0.00
  405731                  1.00   0.00  0.00  0.00  0.00  0.00  0.00  0.01  0.00  0.00
  405732                  1.00   0.00  0.00  0.00  0.00  0.00  0.00  0.01  0.00  0.00
  405733                  1.91   0.00  0.00  0.00  0.00  0.00  0.00  0.01  0.00  0.00
  405734                  1.24   0.00  0.00  0.00  0.00  0.00  0.00  0.01  0.00  0.00
  405735                  1.10   0.00  0.00  0.00  0.00  0.00  0.00  0.01  0.00  0.00
  405736                  1.00   0.00  0.00  0.00  0.00  0.00  0.00  0.01  0.00  0.00
  405737                  1.00   0.00  0.00  0.00  0.00  0.00  0.00  0.01  0.00  0.00
  405738                  1.00   0.00  0.00  0.00  0.00  0.00  0.00  0.01  0.00  0.00
  405739                  1.60   0.00  0.00  0.00  0.00  0.00  0.00  0.01  0.00  0.00
  405740                  1.00   0.00  0.00  0.00  0.00  0.00  0.00  0.01  0.00  0.00
  405741                  1.00   0.00  0.00  0.00  0.00  0.00  0.00  0.01  0.00  0.00
  405742                  2.53   0.00  0.00  0.00  0.00  0.00  0.00  0.01  0.00  0.00
  405743                  1.37   0.00  0.00  0.00  0.00  0.00  0.00  0.01  0.00  0.00
  405744                  1.32   0.00  0.00  0.00  0.00  0.00  0.00  0.01  0.00  0.00
  405745                  1.24   0.00  0.00  0.00  0.00  0.00  0.00  0.01  0.00  0.00
  405746                  2.45   0.00  0.00  0.00  0.00  0.00  0.00  0.01  0.00  0.00
  405747                  1.00   0.00  0.00  0.00  0.00  0.00  0.00  0.01  0.00  0.00
  405748                  1.00   0.00  0.00  0.00  0.00  0.00  0.00  0.01  0.00  0.00
  405749                  2.11   0.00  0.00  0.00  0.00  0.00  0.00  0.01  0.00  0.00
  405750                  1.46   0.00  0.00  0.00  0.00  0.00  0.00  0.01  0.00  0.00
  405751                  1.12   0.00  0.00  0.00  0.00  0.00  0.00  0.01  0.00  0.00
  405753                  1.00   0.00  0.00  0.00  0.00  0.00  0.00  0.01  0.00  0.00
  405754                  1.19   0.00  0.00  0.00  0.00  0.00  0.00  0.01  0.00  0.00
  405755                  1.00   0.00  0.00  0.00  0.00  0.00  0.00  0.01  0.00  0.00
  405756                  2.54   0.00  0.00  0.00  0.00  0.00  0.00  0.01  0.00  0.00
  405757                  1.00   0.00  0.00  0.00  0.00  0.00  0.00  0.01  0.00  0.00
  405758                  2.63   0.00  0.00  0.00  0.00  0.00  0.00  0.01  0.00  0.00
  410230                  1.00   0.00  0.00  0.00  0.00  0.00  0.00  0.01  0.00  0.00
  410231                 20.62   0.00  0.00  0.00  0.00  0.01  0.00  0.00  0.01  0.00
  410232                  1.19   0.00  0.00  0.00  0.00  0.00  0.00  0.01  0.00  0.00
  410233                  1.00   0.00  0.00  0.00  0.00  0.00  0.00  0.01  0.00  0.00
  410234                  7.67   0.00  0.00  0.00  0.00  0.00  0.00  0.01  0.00  0.00
  410235                  8.76   0.00  0.00  0.00  0.01  0.00  0.00  0.00  0.01  0.00
  419810                  1.67   0.00  0.00  0.00  0.00  0.00  0.00  0.01  0.00  0.00
  419811                  1.00   0.00  0.00  0.00  0.00  0.00  0.00  0.01  0.00  0.00
  419812                  1.00   0.00  0.00  0.00  0.00  0.00  0.00  0.01  0.00  0.00
  419813                  1.32   0.00  0.00  0.00  0.00  0.00  0.00  0.01  0.00  0.00
  419814                  1.00   0.00  0.00  0.00  0.00  0.00  0.00  0.01  0.00  0.00
  419815                  2.07   0.00  0.00  0.00  0.00  0.00  0.00  0.01  0.00  0.00
  419816                  1.64   0.00  0.00  0.00  0.00  0.00  0.00  0.01  0.00  0.00
  419817                  1.49   0.00  0.00  0.00  0.00  0.00  0.00  0.01  0.00  0.00
  419818                  1.00   0.00  0.00  0.00  0.00  0.00  0.00  0.01  0.00  0.00
  419819                  2.35   0.00  0.00  0.00  0.00  0.00  0.00  0.01  0.00  0.00
  419820                  6.46   0.00  0.00  0.00  0.00  0.00  0.00  0.01  0.00  0.00
  419821                  1.65   0.00  0.00  0.00  0.00  0.00  0.00  0.01  0.00  0.00
  419822                  2.68   0.00  0.00  0.00  0.00  0.00  0.00  0.01  0.00  0.00
  421247                  1.93   0.00  0.00  0.00  0.00  0.00  0.00  0.01  0.00  0.00
  421248                  3.25   0.00  0.00  0.00  0.00  0.00  0.00  0.01  0.00  0.00
  421249                  1.15   0.00  0.00  0.00  0.00  0.00  0.00  0.01  0.00  0.00
  421250                  2.81   0.00  0.00  0.00  0.00  0.00  0.00  0.01  0.00  0.00
  421251                  1.00   0.00  0.00  0.00  0.00  0.00  0.00  0.01  0.00  0.00
  421252                  1.29   0.00  0.00  0.00  0.00  0.00  0.00  0.01  0.00  0.00
  421253                  1.00   0.00  0.00  0.00  0.00  0.00  0.00  0.01  0.00  0.00
  421254                  1.00   0.00  0.00  0.00  0.00  0.00  0.00  0.01  0.00  0.00
  421255                  1.00   0.00  0.00  0.00  0.00  0.00  0.00  0.01  0.00  0.00
  421256                  1.00   0.00  0.00  0.00  0.00  0.00  0.00  0.01  0.00  0.00
  421257                  1.22   0.00  0.00  0.00  0.00  0.00  0.00  0.01  0.00  0.00
  421258                  1.31   0.00  0.00  0.00  0.00  0.00  0.00  0.01  0.00  0.00
  421259                  1.00   0.00  0.00  0.00  0.00  0.00  0.00  0.01  0.00  0.00
  424877                  1.00   0.00  0.00  0.00  0.00  0.00  0.00  0.01  0.00  0.00
  424878                  1.01   0.00  0.00  0.00  0.00  0.00  0.00  0.01  0.00  0.00
  424879                  1.00   0.00  0.00  0.00  0.00  0.00  0.00  0.01  0.00  0.00
  424881                  1.00   0.00  0.00  0.00  0.00  0.00  0.00  0.01  0.00  0.00
  424882                  1.00   0.00  0.00  0.00  0.00  0.00  0.00  0.01  0.00  0.00
  424883                  6.43   0.01  0.00  0.00  0.00  0.00  0.00  0.00  0.00  0.00
  93813                   1.53   0.00  0.00  0.00  0.00  0.00  0.00  0.01  0.00  0.00
  93814                   1.73   0.00  0.00  0.00  0.00  0.00  0.00  0.01  0.00  0.00
  93815                   1.00   0.00  0.00  0.00  0.00  0.00  0.00  0.01  0.00  0.00
  93816                   1.00   0.00  0.00  0.00  0.00  0.00  0.00  0.01  0.00  0.00
  93817                   1.20   0.00  0.00  0.00  0.00  0.00  0.00  0.01  0.00  0.00
  93818                   1.04   0.00  0.00  0.00  0.00  0.00  0.00  0.01  0.00  0.00
  93819                   2.03   0.00  0.00  0.00  0.00  0.00  0.00  0.01  0.00  0.00
  93820                   2.41   0.00  0.00  0.00  0.00  0.00  0.00  0.01  0.00  0.00
  93821                   1.05   0.00  0.00  0.00  0.00  0.00  0.00  0.01  0.00  0.00
  LINK_19                 1.00   0.00  0.00  0.00  0.00  0.00  0.00  0.01  0.00  0.00
  LINK_23                 1.00   0.00  0.00  0.00  0.01  0.00  0.00  0.00  0.00  0.00
  RMLINK_10               1.00   0.00  0.01  0.00  0.00  0.00  0.00  0.00  0.00  0.00
  RMLINK_11               1.00   0.00  0.01  0.00  0.00  0.00  0.00  0.00  0.00  0.00
  RMLINK_12               1.00   0.00  0.00  0.00  0.01  0.00  0.00  0.00  0.01  0.00
  RMLINK_13               1.00   0.00  0.00  0.00  0.00  0.01  0.00  0.00  0.01  0.00
  RMLINK_14               1.00   0.00  0.00  0.00  0.01  0.00  0.00  0.00  0.01  0.00
  RMLINK_15               1.00   0.00  0.00  0.00  0.01  0.00  0.00  0.00  0.01  0.00
  RMLINK_16               1.00   0.00  0.00  0.00  0.01  0.00  0.00  0.00  0.01  0.00
  RMLINK_17               1.00   0.00  0.01  0.00  0.00  0.00  0.00  0.00  0.00  0.00
  RMLINK_18               1.00   0.00  0.00  0.00  0.01  0.00  0.00  0.00  0.01  0.00
  RMLINK_20               1.00   0.00  0.00  0.00  0.01  0.00  0.00  0.00  0.01  0.00
  RMLINK_21               1.00   0.00  0.00  0.00  0.01  0.00  0.00  0.00  0.00  0.00
  RMLINK_22               1.00   0.00  0.00  0.00  0.01  0.00  0.00  0.00  0.00  0.00
  RMLINK_7                1.00   0.00  0.00  0.00  0.01  0.00  0.00  0.00  0.00  0.00
  RMLINK_8                1.00   0.00  0.00  0.00  0.01  0.00  0.00  0.00  0.01  0.00
  RMLINK_9                1.00   0.00  0.00  0.00  0.01  0.00  0.00  0.00  0.01  0.00
  
  
  *************************
  Conduit Surcharge Summary
  *************************
  
  ----------------------------------------------------------------------------
                                                           Hours        Hours 
                         --------- Hours Full --------   Above Full   Capacity
  Conduit                Both Ends  Upstream  Dnstream   Normal Flow   Limited
  ----------------------------------------------------------------------------
  112082                      0.17      0.17      0.17      0.01         0.01
  112083                      0.17      0.17      0.17      0.01         0.01
  112084                      0.01      0.01      0.17      0.01         0.01
  112091                      0.01      0.01      0.17      0.01         0.01
  112092                      0.17      0.17      0.17      0.01         0.01
  112093                      0.17      0.17      0.17      0.01         0.01
  112097                      0.01      0.01      0.17      0.01         0.01
  112098                      0.17      0.17      0.17      0.01         0.01
  112099                      0.17      0.17      0.17      0.01         0.01
  210688                      0.01      0.01      0.17      0.01         0.01
  210692                      0.01      0.01      0.17      0.01         0.01
  212656                      0.01      0.01      0.17      0.01         0.01
  245131                      0.01      0.01      0.17      0.01         0.01
  245156                      0.01      0.01      0.17      0.01         0.01
  245158                      0.17      0.17      0.17      0.01         0.01
  245159                      0.17      0.17      0.17      0.01         0.01
  245161                      0.17      0.17      0.17      0.01         0.01
  245163                      0.17      0.17      0.17      0.01         0.01
  245165                      0.17      0.17      0.17      0.01         0.01
  245166                      0.17      0.17      0.17      0.01         0.01
  245167                      0.17      0.17      0.17      0.01         0.01
  245168                      0.17      0.17      0.17      0.01         0.01
  245169                      0.17      0.17      0.17      0.01         0.01
  245170                      0.17      0.17      0.17      0.01         0.01
  245172                      0.17      0.17      0.17      0.01         0.01
  245173                      0.17      0.17      0.17      0.01         0.01
  245174                      0.17      0.17      0.17      0.01         0.01
  245176                      0.17      0.17      0.17      0.01         0.01
  245177                      0.17      0.17      0.17      0.01         0.01
  245178                      0.17      0.17      0.17      0.01         0.01
  245179                      0.17      0.17      0.17      0.01         0.01
  245180                      0.17      0.17      0.17      0.01         0.01
  245181                      0.17      0.17      0.17      0.01         0.01
  245182                      0.17      0.17      0.17      0.01         0.01
  245183                      0.01      0.01      0.17      0.01         0.01
  259147                      0.17      0.17      0.17      0.01         0.01
  259149                      0.17      0.17      0.17      0.01         0.01
  259151                      0.17      0.17      0.17      0.01         0.01
  259153                      0.17      0.17      0.17      0.01         0.01
  275200                      0.17      0.17      0.17      0.01         0.01
  275201                      0.17      0.17      0.17      0.01         0.01
  275202                      0.17      0.17      0.17      0.01         0.01
  275203                      0.17      0.17      0.17      0.01         0.01
  275204                      0.17      0.17      0.17      0.01         0.01
  275205                      0.17      0.17      0.17      0.01         0.01
  275206                      0.01      0.01      0.17      0.01         0.01
  288417                      0.17      0.17      0.17      0.01         0.01
  293017                      0.01      0.01      0.17      0.01         0.01
  293018                      0.01      0.01      0.17      0.01         0.01
  293019                      0.01      0.01      0.17      0.01         0.01
  293021                      0.01      0.01      0.17      0.01         0.01
  293022                      0.01      0.01      0.17      0.01         0.01
  293023                      0.01      0.01      0.17      0.01         0.01
  2_25                        0.17      0.17      0.17      0.01         0.01
  31366                       0.01      0.01      0.17      0.01         0.01
  31549                       0.01      0.01      0.17      0.01         0.01
  31614                       0.01      0.01      0.17      0.01         0.01
  31615                       0.17      0.17      0.17      0.01         0.01
  31616                       0.17      0.17      0.17      0.01         0.01
  31617                       0.17      0.17      0.17      0.01         0.01
  31618                       0.17      0.17      0.17      0.01         0.01
  31619                       0.17      0.17      0.17      0.01         0.01
  31620                       0.17      0.17      0.17      0.01         0.01
  31621                       0.17      0.17      0.17      0.01         0.01
  31623                       0.01      0.01      0.17      0.01         0.01
  31624                       0.17      0.17      0.17      0.01         0.01
  31625                       0.17      0.17      0.17      0.01         0.01
  31626                       0.17      0.17      0.17      0.01         0.01
  31627                       0.17      0.17      0.17      0.01         0.01
  31628                       0.17      0.17      0.17      0.01         0.01
  31629                       0.17      0.17      0.17      0.01         0.01
  31630                       0.17      0.17      0.17      0.01         0.01
  31634                       0.17      0.17      0.17      0.01         0.01
  31635                       0.17      0.17      0.17      0.01         0.01
  31647                       0.17      0.17      0.17      0.01         0.01
  31826                       0.01      0.01      0.17      0.01         0.01
  31831                       0.01      0.01      0.17      0.01         0.01
  31837                       0.01      0.01      0.17      0.01         0.01
  31848                       0.01      0.01      0.17      0.01         0.01
  31849                       0.01      0.01      0.17      0.01         0.01
  31850                       0.17      0.17      0.17      0.01         0.01
  31851                       0.17      0.17      0.17      0.01         0.01
  31852                       0.17      0.17      0.17      0.01         0.01
  31853                       0.17      0.17      0.17      0.01         0.01
  31854                       0.17      0.17      0.17      0.01         0.01
  31855                       0.17      0.17      0.17      0.01         0.01
  31856                       0.17      0.17      0.17      0.01         0.01
  31858                       0.17      0.17      0.17      0.01         0.01
  31859                       0.17      0.17      0.17      0.01         0.01
  31860                       0.17      0.17      0.17      0.01         0.01
  323439                      0.01      0.01      0.17      0.01         0.01
  323452                      0.01      0.01      0.17      0.01         0.01
  323453                      0.17      0.17      0.17      0.01         0.01
  323454                      0.01      0.01      0.17      0.01         0.01
  323463                      0.17      0.17      0.17      0.01         0.01
  323464                      0.17      0.17      0.17      0.01         0.01
  323465                      0.17      0.17      0.17      0.01         0.01
  323466                      0.17      0.17      0.17      0.01         0.01
  323467                      0.17      0.17      0.17      0.01         0.01
  323468                      0.17      0.17      0.17      0.01         0.01
  323469                      0.17      0.17      0.17      0.01         0.01
  323470                      0.01      0.01      0.17      0.01         0.01
  32744                       0.17      0.17      0.17      0.01         0.01
  32745                       0.17      0.17      0.17      0.01         0.01
  32746                       0.17      0.17      0.17      0.01         0.01
  32747                       0.17      0.17      0.17      0.01         0.01
  32748                       0.17      0.17      0.17      0.01         0.01
  32749                       0.01      0.01      0.17      0.01         0.01
  385353                      0.17      0.17      0.17      0.01         0.01
  385354                      0.17      0.17      0.17      0.01         0.01
  385355                      0.17      0.17      0.17      0.01         0.01
  385356                      0.17      0.17      0.17      0.01         0.01
  394285                      0.17      0.17      0.17      0.01         0.01
  394286                      0.17      0.17      0.17      0.01         0.01
  394287                      0.17      0.17      0.17      0.01         0.01
  394288                      0.01      0.01      0.17      0.01         0.01
  394289                      0.17      0.17      0.17      0.01         0.01
  394290                      0.01      0.01      0.17      0.01         0.01
  394293                      0.17      0.17      0.17      0.01         0.01
  394294                      0.17      0.17      0.17      0.01         0.01
  394295                      0.17      0.17      0.17      0.01         0.01
  394297                      0.17      0.17      0.17      0.01         0.01
  394298                      0.17      0.17      0.17      0.01         0.01
  394299                      0.01      0.01      0.17      0.01         0.01
  394301                      0.01      0.01      0.17      0.01         0.01
  398108                      0.17      0.17      0.17      0.01         0.01
  398109                      0.17      0.17      0.17      0.01         0.01
  398110                      0.01      0.01      0.17      0.01         0.01
  401179                      0.17      0.17      0.17      0.01         0.01
  401183                      0.17      0.17      0.17      0.01         0.01
  401184                      0.01      0.01      0.17      0.01         0.01
  401196                      0.17      0.17      0.17      0.01         0.01
  401197                      0.17      0.17      0.17      0.01         0.01
  401198                      0.17      0.17      0.17      0.01         0.01
  401199                      0.01      0.01      0.17      0.01         0.01
  LINK_23                     0.17      0.17      0.17      0.01         0.01
  RMLINK_21                   0.17      0.17      0.17      0.01         0.01
  RMLINK_22                   0.17      0.17      0.17      0.01         0.01
  RMLINK_7                    0.01      0.01      0.17      0.01         0.01
  

  Analysis begun on:  Fri Nov 29 09:58:15 2019
  Analysis ended on:  Fri Nov 29 09:58:30 2019
  Total elapsed time: 00:00:15