
  EPA STORM WATER MANAGEMENT MODEL - VERSION 5.1 (Build 5.1.013)
  --------------------------------------------------------------

  
  ERROR 209: undefined object 1 at line 51 of [SUBCATCHMENT] section:
  11697.1          1                11697            0.000000 0.000000 144.725254 5.031832 0.000000                 

  
  ERROR 209: undefined object 1 at line 52 of [SUBCATCHMENT] section:
  11729.1          1                11729            0.000000 0.000000 109.803079 4.343031 0.000000                 

  
  ERROR 209: undefined object 1 at line 53 of [SUBCATCHMENT] section:
  11729.2          1                11729            0.000000 0.000000 61.861727 4.343031 0.000000                 

  
  ERROR 209: undefined object 1 at line 54 of [SUBCATCHMENT] section:
  11730.1          1                11730            0.000000 0.000000 98.630566 4.856501 0.000000                 

  
  ERROR 209: undefined object 1 at line 55 of [SUBCATCHMENT] section:
  11731.1          1                11731            0.000000 0.000000 95.350797 4.380339 0.000000                 

  
  ERROR 209: undefined object 1 at line 56 of [SUBCATCHMENT] section:
  11731.2          1                11731            0.000000 0.000000 130.754110 4.380339 0.000000                 

  
  ERROR 209: undefined object 1 at line 57 of [SUBCATCHMENT] section:
  11732.1          1                11732            0.000000 0.000000 172.120430 1.003902 0.000000                 

  
  ERROR 209: undefined object 1 at line 58 of [SUBCATCHMENT] section:
  11733.1          1                11733            0.000000 0.000000 64.015277 0.962963 0.000000                 

  
  ERROR 209: undefined object 1 at line 59 of [SUBCATCHMENT] section:
  11733.2          1                11733            0.000000 0.000000 46.971834 0.962963 0.000000                 

  
  ERROR 209: undefined object 1 at line 60 of [SUBCATCHMENT] section:
  11734.1          1                11734            0.000000 0.000000 97.807453 0.907766 0.000000                 

  
  ERROR 209: undefined object 1 at line 61 of [SUBCATCHMENT] section:
  11735.1          1                11735            0.000000 0.000000 106.851218 1.529748 0.000000                 

  
  ERROR 209: undefined object 1 at line 62 of [SUBCATCHMENT] section:
  11735.2          1                11735            0.000000 0.000000 134.573972 1.529748 0.000000                 

  
  ERROR 209: undefined object 1 at line 63 of [SUBCATCHMENT] section:
  11736.1          1                11736            0.000000 0.000000 87.964978 3.579284 0.000000                 

  
  ERROR 209: undefined object 1 at line 64 of [SUBCATCHMENT] section:
  11736.2          1                11736            0.000000 0.000000 115.646617 3.579284 0.000000                 

  
  ERROR 209: undefined object 1 at line 65 of [SUBCATCHMENT] section:
  11737.1          1                11737            0.000000 0.000000 151.667122 0.956481 0.000000                 

  
  ERROR 209: undefined object 1 at line 66 of [SUBCATCHMENT] section:
  11738.1          1                11738            0.000000 0.000000 148.384205 1.268479 0.000000                 

  
  ERROR 209: undefined object 1 at line 67 of [SUBCATCHMENT] section:
  11761.1          1                11761            0.000000 0.000000 114.443780 0.945450 0.000000                 

  
  ERROR 209: undefined object 1 at line 68 of [SUBCATCHMENT] section:
  11761.2          1                11761            0.000000 0.000000 63.559892 0.945450 0.000000                 

  
  ERROR 209: undefined object 1 at line 69 of [SUBCATCHMENT] section:
  11761.3          1                11761            0.000000 0.000000 83.339995 0.945450 0.000000                 

  
  ERROR 209: undefined object 1 at line 70 of [SUBCATCHMENT] section:
  11764.1          1                11764            0.000000 0.000000 100.357557 0.951553 0.000000                 

  
  ERROR 209: undefined object 1 at line 71 of [SUBCATCHMENT] section:
  11764.2          1                11764            0.000000 0.000000 127.374582 0.951553 0.000000                 

  
  ERROR 209: undefined object 1 at line 72 of [SUBCATCHMENT] section:
  11765.1          1                11765            0.000000 0.000000 87.453844 4.049684 0.000000                 

  
  ERROR 209: undefined object 1 at line 73 of [SUBCATCHMENT] section:
  11765.2          1                11765            0.000000 0.000000 104.745721 4.049684 0.000000                 

  
  ERROR 209: undefined object 1 at line 74 of [SUBCATCHMENT] section:
  11766.1          1                11766            0.000000 0.000000 174.288306 0.950587 0.000000                 

  
  ERROR 209: undefined object 1 at line 75 of [SUBCATCHMENT] section:
  11767.1          1                11767            0.000000 0.000000 142.228158 1.406003 0.000000                 

  
  ERROR 209: undefined object 1 at line 76 of [SUBCATCHMENT] section:
  11768.1          1                11768            0.000000 0.000000 70.628003 1.071949 0.000000                 

  
  ERROR 209: undefined object 1 at line 77 of [SUBCATCHMENT] section:
  11768.2          1                11768            0.000000 0.000000 106.853054 1.071949 0.000000                 

  
  ERROR 209: undefined object 1 at line 78 of [SUBCATCHMENT] section:
  11769.1          1                11769            0.000000 0.000000 74.958007 1.117640 0.000000                 

  
  ERROR 209: undefined object 1 at line 79 of [SUBCATCHMENT] section:
  11769.2          1                11769            0.000000 0.000000 115.630017 1.117640 0.000000                 

  
  ERROR 209: undefined object 1 at line 80 of [SUBCATCHMENT] section:
  11771            1                11771            0.000000 0.000000 127.345258 0.861940 0.000000                 

  
  ERROR 209: undefined object 1 at line 81 of [SUBCATCHMENT] section:
  11771.1          1                11771            0.000000 0.000000 68.835861 0.861940 0.000000                 

  
  ERROR 209: undefined object 1 at line 82 of [SUBCATCHMENT] section:
  11772.1          1                11772            0.000000 0.000000 98.154718 0.991973 0.000000                 

  
  ERROR 209: undefined object 1 at line 83 of [SUBCATCHMENT] section:
  11772.2          1                11772            0.000000 0.000000 110.561401 0.991973 0.000000                 

  
  ERROR 209: undefined object 1 at line 84 of [SUBCATCHMENT] section:
  11773.1          1                11773            0.000000 0.000000 133.360673 3.131146 0.000000                 

  
  ERROR 209: undefined object 1 at line 85 of [SUBCATCHMENT] section:
  11777.1          1                11777            0.000000 0.000000 80.896963 6.250809 0.000000                 

  
  ERROR 209: undefined object 1 at line 86 of [SUBCATCHMENT] section:
  11778.1          1                11778            0.000000 0.000000 139.855916 3.278703 0.000000                 

  
  ERROR 209: undefined object 1 at line 87 of [SUBCATCHMENT] section:
  11779.1          1                11779            0.000000 0.000000 80.054606 2.836578 0.000000                 

  
  ERROR 209: undefined object 1 at line 88 of [SUBCATCHMENT] section:
  11779.2          1                11779            0.000000 0.000000 92.314329 2.836578 0.000000                 

  
  ERROR 209: undefined object 1 at line 89 of [SUBCATCHMENT] section:
  11780.1          1                11780            0.000000 0.000000 69.667033 0.960120 0.000000                 

  
  ERROR 209: undefined object 1 at line 90 of [SUBCATCHMENT] section:
  11781.1          1                11781            0.000000 0.000000 78.059435 1.289124 0.000000                 

  
  ERROR 209: undefined object 1 at line 91 of [SUBCATCHMENT] section:
  11781.2          1                11781            0.000000 0.000000 61.857327 1.289124 0.000000                 

  
  ERROR 209: undefined object 1 at line 92 of [SUBCATCHMENT] section:
  11782.1          1                11782            0.000000 0.000000 77.611293 5.037405 0.000000                 

  
  ERROR 209: undefined object 1 at line 93 of [SUBCATCHMENT] section:
  11782.2          1                11782            0.000000 0.000000 94.010577 5.037405 0.000000                 

  
  ERROR 209: undefined object 1 at line 94 of [SUBCATCHMENT] section:
  11783.1          1                11783            0.000000 0.000000 114.692422 4.905403 0.000000                 

  
  ERROR 209: undefined object 1 at line 95 of [SUBCATCHMENT] section:
  11783.2          1                11783            0.000000 0.000000 98.499775 4.905403 0.000000                 

  
  ERROR 209: undefined object 1 at line 96 of [SUBCATCHMENT] section:
  11784.1          1                11784            0.000000 0.000000 42.500067 4.731793 0.000000                 

  
  ERROR 209: undefined object 1 at line 97 of [SUBCATCHMENT] section:
  11784.2          1                11784            0.000000 0.000000 93.732217 4.731793 0.000000                 

  
  ERROR 209: undefined object 1 at line 98 of [SUBCATCHMENT] section:
  11785.1          1                11785            0.000000 0.000000 92.968141 1.410481 0.000000                 

  
  ERROR 209: undefined object 1 at line 99 of [SUBCATCHMENT] section:
  11785.2          1                11785            0.000000 0.000000 67.101930 1.410481 0.000000                 

  
  ERROR 209: undefined object 1 at line 100 of [SUBCATCHMENT] section:
  11787.1          1                11787            0.000000 0.000000 104.330066 5.009923 0.000000                 

  
  ERROR 209: undefined object 1 at line 101 of [SUBCATCHMENT] section:
  11787.2          1                11787            0.000000 0.000000 99.707270 5.009923 0.000000                 

  
  ERROR 209: undefined object 1 at line 102 of [SUBCATCHMENT] section:
  11788.1          1                11788            0.000000 0.000000 56.767581 6.680304 0.000000                 

  
  ERROR 209: undefined object 1 at line 103 of [SUBCATCHMENT] section:
  11789.1          1                11789            0.000000 0.000000 97.630706 5.164806 0.000000                 

  
  ERROR 209: undefined object 1 at line 104 of [SUBCATCHMENT] section:
  11789.2          1                11789            0.000000 0.000000 94.941089 5.164806 0.000000                 

  
  ERROR 209: undefined object 1 at line 105 of [SUBCATCHMENT] section:
  11791.1          1                11791            0.000000 0.000000 74.399407 3.653050 0.000000                 

  
  ERROR 209: undefined object 1 at line 106 of [SUBCATCHMENT] section:
  11791.2          1                11791            0.000000 0.000000 117.993345 3.653050 0.000000                 

  
  ERROR 209: undefined object 1 at line 107 of [SUBCATCHMENT] section:
  11792.1          1                11792            0.000000 0.000000 75.953613 1.562315 0.000000                 

  
  ERROR 209: undefined object 1 at line 108 of [SUBCATCHMENT] section:
  11792.2          1                11792            0.000000 0.000000 106.084744 1.562315 0.000000                 

  
  ERROR 209: undefined object 1 at line 109 of [SUBCATCHMENT] section:
  11793.1          1                11793            0.000000 0.000000 178.163098 1.127052 0.000000                 

  
  ERROR 209: undefined object 1 at line 110 of [SUBCATCHMENT] section:
  11794.1          1                11794            0.000000 0.000000 115.780507 0.944233 0.000000                 

  
  ERROR 209: undefined object 1 at line 111 of [SUBCATCHMENT] section:
  11794.2          1                11794            0.000000 0.000000 120.304230 0.944233 0.000000                 

  
  ERROR 209: undefined object 1 at line 112 of [SUBCATCHMENT] section:
  11794.3          1                11794            0.000000 0.000000 90.782487 0.944233 0.000000                 

  
  ERROR 209: undefined object 1 at line 113 of [SUBCATCHMENT] section:
  11794.4          1                11794            0.000000 0.000000 100.063806 0.944233 0.000000                 

  
  ERROR 209: undefined object 1 at line 114 of [SUBCATCHMENT] section:
  11795.1          1                11795            0.000000 0.000000 99.903560 0.908835 0.000000                 

  
  ERROR 209: undefined object 1 at line 115 of [SUBCATCHMENT] section:
  11795.2          1                11795            0.000000 0.000000 75.053326 0.908835 0.000000                 

  
  ERROR 209: undefined object 1 at line 116 of [SUBCATCHMENT] section:
  11796.1          1                11796            0.000000 0.000000 87.048864 0.790542 0.000000                 

  
  ERROR 209: undefined object 1 at line 117 of [SUBCATCHMENT] section:
  11796.2          1                11796            0.000000 0.000000 113.029501 0.790542 0.000000                 

  
  ERROR 209: undefined object 1 at line 118 of [SUBCATCHMENT] section:
  11797.1          1                11797            0.000000 0.000000 64.245912 2.178447 0.000000                 

  
  ERROR 209: undefined object 1 at line 119 of [SUBCATCHMENT] section:
  11798.1          1                11798            0.000000 0.000000 93.325171 5.121030 0.000000                 

  
  ERROR 209: undefined object 1 at line 120 of [SUBCATCHMENT] section:
  11798.2          1                11798            0.000000 0.000000 91.549459 5.121030 0.000000                 

  
  ERROR 209: undefined object 1 at line 121 of [SUBCATCHMENT] section:
  11799.1          1                11799            0.000000 0.000000 81.448658 3.250246 0.000000                 

  
  ERROR 209: undefined object 1 at line 122 of [SUBCATCHMENT] section:
  11799.2          1                11799            0.000000 0.000000 97.838699 3.250246 0.000000                 

  
  ERROR 209: undefined object 1 at line 123 of [SUBCATCHMENT] section:
  11799.3          1                11799            0.000000 0.000000 84.274485 3.250246 0.000000                 

  
  ERROR 209: undefined object 1 at line 124 of [SUBCATCHMENT] section:
  11803.1          1                11803            0.000000 0.000000 62.118134 1.355850 0.000000                 

  
  ERROR 209: undefined object 1 at line 125 of [SUBCATCHMENT] section:
  11803.2          1                11803            0.000000 0.000000 110.941710 1.355850 0.000000                 

  
  ERROR 209: undefined object 1 at line 126 of [SUBCATCHMENT] section:
  11804.1          1                11804            0.000000 0.000000 99.175903 4.103739 0.000000                 

  
  ERROR 209: undefined object 1 at line 127 of [SUBCATCHMENT] section:
  11805.1          1                11805            0.000000 0.000000 128.635394 3.229748 0.000000                 

  
  ERROR 209: undefined object 1 at line 128 of [SUBCATCHMENT] section:
  11805.2          1                11805            0.000000 0.000000 67.957200 3.229748 0.000000                 

  
  ERROR 209: undefined object 1 at line 129 of [SUBCATCHMENT] section:
  11806.1          1                11806            0.000000 0.000000 74.414560 4.081883 0.000000                 

  
  ERROR 209: undefined object 1 at line 130 of [SUBCATCHMENT] section:
  11808.1          1                11808            0.000000 0.000000 128.242669 1.628370 0.000000                 

  
  ERROR 209: undefined object 1 at line 131 of [SUBCATCHMENT] section:
  11810.1          1                11810            0.000000 0.000000 114.417449 0.434861 0.000000                 

  
  ERROR 209: undefined object 1 at line 132 of [SUBCATCHMENT] section:
  11810.2          1                11810            0.000000 0.000000 123.553820 0.434861 0.000000                 

  
  ERROR 209: undefined object 1 at line 133 of [SUBCATCHMENT] section:
  11811.1          1                11811            0.000000 0.000000 102.510538 1.002815 0.000000                 

  
  ERROR 209: undefined object 1 at line 134 of [SUBCATCHMENT] section:
  11811.2          1                11811            0.000000 0.000000 100.813879 1.002815 0.000000                 

  
  ERROR 209: undefined object 1 at line 135 of [SUBCATCHMENT] section:
  11811.3          1                11811            0.000000 0.000000 96.475294 1.002815 0.000000                 

  
  ERROR 209: undefined object 1 at line 136 of [SUBCATCHMENT] section:
  11811.4          1                11811            0.000000 0.000000 109.037906 1.002815 0.000000                 

  
  ERROR 209: undefined object 1 at line 137 of [SUBCATCHMENT] section:
  11812.1          1                11812            0.000000 0.000000 86.597901 0.999979 0.000000                 

  
  ERROR 209: undefined object 1 at line 138 of [SUBCATCHMENT] section:
  11813.1          1                11813            0.000000 0.000000 86.071429 3.988108 0.000000                 

  
  ERROR 209: undefined object 1 at line 139 of [SUBCATCHMENT] section:
  11814.1          1                11814            0.000000 0.000000 168.110578 2.819054 0.000000                 

  
  ERROR 209: undefined object 1 at line 140 of [SUBCATCHMENT] section:
  11815.1          1                11815            0.000000 0.000000 91.724491 1.059555 0.000000                 

  
  ERROR 209: undefined object 1 at line 141 of [SUBCATCHMENT] section:
  11815.2          1                11815            0.000000 0.000000 63.047114 1.059555 0.000000                 

  
  ERROR 209: undefined object 1 at line 142 of [SUBCATCHMENT] section:
  11816.1          1                11816            0.000000 0.000000 136.857427 0.851388 0.000000                 

  
  ERROR 209: undefined object 1 at line 143 of [SUBCATCHMENT] section:
  11817.1          1                11817            0.000000 0.000000 77.731878 1.648757 0.000000                 

  
  ERROR 209: undefined object 1 at line 144 of [SUBCATCHMENT] section:
  11817.2          1                11817            0.000000 0.000000 117.130069 1.648757 0.000000                 

  
  ERROR 209: undefined object 1 at line 145 of [SUBCATCHMENT] section:
  11818.1          1                11818            0.000000 0.000000 198.849958 3.590228 0.000000                 

  
  ERROR 209: undefined object 1 at line 146 of [SUBCATCHMENT] section:
  11819.1          1                11819            0.000000 0.000000 85.888289 3.665458 0.000000                 

  
  ERROR 209: undefined object 1 at line 147 of [SUBCATCHMENT] section:
  11819.2          1                11819            0.000000 0.000000 77.905004 3.665458 0.000000                 

  
  ERROR 209: undefined object 1 at line 148 of [SUBCATCHMENT] section:
  11820.1          1                11820            0.000000 0.000000 158.202908 3.839410 0.000000                 

  
  ERROR 209: undefined object 1 at line 149 of [SUBCATCHMENT] section:
  11820.2          1                11820            0.000000 0.000000 104.901477 3.839410 0.000000                 

  
  ERROR 209: undefined object 1 at line 150 of [SUBCATCHMENT] section:
  11821.1          1                11821            0.000000 0.000000 98.238053 0.925744 0.000000                 

  
  Maximum error count exceeded.

  Analysis begun on:  Fri Nov 29 09:58:30 2019
  Analysis ended on:  Fri Nov 29 09:58:30 2019
  Total elapsed time: < 1 sec