
  EPA STORM WATER MANAGEMENT MODEL - VERSION 5.1 (Build 5.1.013)
  --------------------------------------------------------------

  
  *********************************************************
  NOTE: The summary statistics displayed in this report are
  based on results found at every computational time step,  
  not just on results from each reporting time step.
  *********************************************************
  
  ****************
  Analysis Options
  ****************
  Flow Units ............... MGD
  Process Models:
    Rainfall/Runoff ........ YES
    RDII ................... NO
    Snowmelt ............... NO
    Groundwater ............ NO
    Flow Routing ........... NO
    Water Quality .......... NO
  Infiltration Method ...... HORTON
  Surcharge Method ......... EXTRAN
  Starting Date ............ 05/17/1999 00:00:00
  Ending Date .............. 05/18/1999 00:00:00
  Antecedent Dry Days ...... 0.0
  Report Time Step ......... 00:15:00
  Wet Time Step ............ 00:05:00
  Dry Time Step ............ 01:00:00
  
  
  **************************        Volume         Depth
  Runoff Quantity Continuity     acre-feet        inches
  **************************     ---------       -------
  Total Precipitation ......      1311.779         1.100
  Evaporation Loss .........         0.000         0.000
  Infiltration Loss ........       919.701         0.771
  Surface Runoff ...........       370.576         0.311
  Final Storage ............        22.625         0.019
  Continuity Error (%) .....        -0.086
  
  
  ***************************
  Subcatchment Runoff Summary
  ***************************
  
  ------------------------------------------------------------------------------------------------------------------------------
                            Total      Total      Total      Total     Imperv       Perv      Total       Total     Peak  Runoff
                           Precip      Runon       Evap      Infil     Runoff     Runoff     Runoff      Runoff   Runoff   Coeff
  Subcatchment                 in         in         in         in         in         in         in    10^6 gal      MGD
  ------------------------------------------------------------------------------------------------------------------------------
  035a                       1.10       0.00       0.00       0.88       0.16       0.06       0.22        0.36     5.86   0.200
  035b                       1.10       0.00       0.00       0.87       0.22       0.00       0.22        0.02     0.27   0.205
  039a                       1.10       0.00       0.00       0.55       0.50       0.04       0.54        1.08    16.40   0.491
  040a1                      1.10       0.00       0.00       0.64       0.41       0.04       0.45        0.22     3.27   0.410
  040a2                      1.10       0.00       0.00       0.63       0.41       0.05       0.46        0.58     8.45   0.418
  040b                       1.10       0.00       0.00       0.63       0.41       0.05       0.46        1.55    22.68   0.415
  040c                       1.10       0.00       0.00       0.65       0.41       0.03       0.44        1.24    18.84   0.397
  040d                       1.10       0.00       0.00       0.63       0.41       0.05       0.46        0.27     3.85   0.417
  040e                       1.10       0.00       0.00       0.63       0.41       0.05       0.46        0.52     7.53   0.418
  040f                       1.10       0.00       0.00       0.63       0.41       0.05       0.46        0.47     6.80   0.419
  040g                       1.10       0.00       0.00       0.62       0.41       0.06       0.46        0.23     3.29   0.423
  250a                       1.10       0.00       0.00       0.83       0.27       0.00       0.27        0.13     2.16   0.243
  BBa                        1.10       0.00       0.00       0.68       0.37       0.04       0.41        0.37     5.44   0.376
  BBb                        1.10       0.00       0.00       0.96       0.11       0.03       0.14        0.97    12.76   0.125
  BBc                        1.10       0.00       0.00       1.02       0.03       0.05       0.08        0.14     3.82   0.072
  BBd                        1.10       0.00       0.00       0.75       0.34       0.00       0.34        0.05     0.76   0.311
  BBe1                       1.10       0.00       0.00       0.41       0.63       0.04       0.67        0.12     1.86   0.612
  BBe2                       1.10       0.00       0.00       0.41       0.63       0.04       0.67        0.12     1.86   0.612
  BBf1                       1.10       0.00       0.00       0.60       0.43       0.06       0.49        0.05     0.71   0.443
  BBf2                       1.10       0.00       0.00       0.60       0.43       0.06       0.49        0.02     0.36   0.443
  BBf3                       1.10       0.00       0.00       0.60       0.43       0.06       0.49        0.17     2.50   0.443
  BBg1                       1.10       0.00       0.00       0.69       0.35       0.05       0.40        0.44     6.26   0.365
  BBg2                       1.10       0.00       0.00       0.69       0.35       0.05       0.40        0.05     0.70   0.365
  BBh                        1.10       0.00       0.00       0.52       0.52       0.05       0.57        0.38     5.66   0.518
  BBi                        1.10       0.00       0.00       0.70       0.33       0.06       0.40        0.18     2.45   0.360
  BBj                        1.10       0.00       0.00       0.91       0.18       0.00       0.18        0.07     1.09   0.165
  BBk                        1.10       0.00       0.00       0.60       0.45       0.04       0.49        0.25     3.72   0.447
  BBl                        1.10       0.00       0.00       0.60       0.46       0.03       0.49        0.34     5.22   0.445
  BBm                        1.10       0.00       0.00       0.88       0.18       0.04       0.22        0.17     2.37   0.199
  BBn                        1.10       0.00       0.00       1.04       0.05       0.00       0.05        0.02     0.36   0.048
  BBo                        1.10       0.00       0.00       1.08       0.02       0.00       0.02        0.01     0.18   0.019
  BBp                        1.10       0.00       0.00       1.07       0.03       0.00       0.03        0.01     0.16   0.029
  BBq                        1.10       0.00       0.00       0.82       0.22       0.05       0.28        0.15     2.04   0.253
  BBr                        1.10       0.00       0.00       0.92       0.12       0.06       0.18        0.29     5.41   0.160
  DILLEa                     1.10       0.00       0.00       1.04       0.06       0.00       0.06        0.05     0.80   0.054
  DILLEb                     1.10       0.00       0.00       1.07       0.03       0.00       0.03        0.02     0.38   0.024
  DILLEc                     1.10       0.00       0.00       1.03       0.07       0.00       0.07        0.02     0.33   0.060
  DS0150a                    1.10       0.00       0.00       0.93       0.08       0.00       0.08        0.32     0.60   0.069
  DS0150a!                   1.10       0.00       0.00       0.93       0.15       0.00       0.15        0.65     3.57   0.137
  DS0150a!!                  1.10       0.00       0.00       0.93       0.16       0.00       0.16        0.70    10.38   0.148
  DS0150a!!!                 1.10       0.00       0.00       0.91       0.16       0.02       0.18        0.79    11.30   0.166
  DS0150a!!!!                1.10       0.00       0.00       0.87       0.16       0.07       0.23        0.97    16.33   0.205
  DS0150a!!!!!               1.10       0.00       0.00       0.85       0.16       0.09       0.25        1.07    17.75   0.226
  DS0150a!!!!!!              1.10       0.00       0.00       0.84       0.16       0.10       0.26        1.10    17.78   0.233
  DS0150a!!!!!!!             1.10       0.00       0.00       0.84       0.16       0.10       0.26        1.10    17.73   0.233
  DS0150b                    1.10       0.00       0.00       0.93       0.07       0.00       0.07        1.31     2.39   0.068
  DS0150c                    1.10       0.00       0.00       0.93       0.09       0.00       0.09        0.59     1.18   0.078
  DSO145                     1.10       0.00       0.00       0.93       0.15       0.00       0.15        0.47     2.55   0.136
  DSO147                     1.10       0.00       0.00       0.94       0.11       0.00       0.11        0.58     1.53   0.103
  DSO154                     1.10       0.00       0.00       0.99       0.10       0.00       0.10        0.02     0.20   0.095
  DSO155D                    1.10       0.00       0.00       0.94       0.11       0.00       0.11        0.49     1.42   0.104
  DSO159                     1.10       0.00       0.00       0.99       0.07       0.00       0.07        0.63     1.56   0.065
  MC1Aa                      1.10       0.00       0.00       0.64       0.43       0.02       0.44        0.21     3.25   0.404
  MC32                       1.10       0.00       0.00       0.64       0.45       0.00       0.45        3.53    56.47   0.412
  MC32X                      1.10       0.00       0.00       0.83       0.16       0.10       0.26        2.01    14.22   0.235
  MC33                       1.10       0.00       0.00       0.55       0.54       0.00       0.54        7.95   120.11   0.493
  MC33X                      1.10       0.00       0.00       0.83       0.19       0.05       0.24        3.54    17.61   0.220
  MC47a                      1.10       0.00       0.00       0.59       0.45       0.05       0.50        0.81     8.92   0.453
  MC47b                      1.10       0.00       0.00       0.56       0.45       0.08       0.53        0.44     5.81   0.483
  MRa                        1.10       0.00       0.00       0.89       0.16       0.05       0.21        0.68    10.03   0.191
  MRb                        1.10       0.00       0.00       0.02       1.05       0.00       1.05        0.15     2.52   0.956
  MRc                        1.10       0.00       0.00       0.04       1.03       0.00       1.03        0.52     8.53   0.939
  MRd                        1.10       0.00       0.00       0.85       0.19       0.06       0.25        0.03     0.43   0.225
  MRe                        1.10       0.00       0.00       0.81       0.21       0.07       0.29        0.22     3.17   0.261
  MRf                        1.10       0.00       0.00       0.86       0.24       0.00       0.24        0.10     1.59   0.214
  MRg                        1.10       0.00       0.00       0.98       0.07       0.04       0.12        0.14     2.80   0.109
  MRh                        1.10       0.00       0.00       0.96       0.14       0.00       0.14        0.03     0.42   0.126
  S04a                       1.10       0.00       0.00       0.22       0.86       0.00       0.86        0.11     1.79   0.779
  S10a                       1.10       0.00       0.00       0.66       0.43       0.00       0.43        0.20     3.29   0.389
  S10b                       1.10       0.00       0.00       0.69       0.40       0.00       0.40        0.54     8.90   0.360
  S10c                       1.10       0.00       0.00       0.64       0.45       0.00       0.45        0.48     7.80   0.409
  S10d                       1.10       0.00       0.00       0.73       0.36       0.00       0.36        0.21     3.49   0.331
  S10e                       1.10       0.00       0.00       0.73       0.36       0.00       0.36        0.37     6.12   0.330
  S10f                       1.10       0.00       0.00       0.69       0.40       0.00       0.40        0.37     6.13   0.360
  S10g                       1.10       0.00       0.00       0.69       0.40       0.00       0.40        0.61     9.98   0.359
  S10h                       1.10       0.00       0.00       0.65       0.44       0.00       0.44        0.61     9.94   0.399
  S10i                       1.10       0.00       0.00       0.71       0.37       0.00       0.37        0.43     7.04   0.341
  S10j                       1.10       0.00       0.00       0.57       0.51       0.00       0.51        0.36     5.85   0.466
  S10k                       1.10       0.00       0.00       0.79       0.30       0.00       0.30        0.46     7.47   0.272
  S10l1                      1.10       0.00       0.00       0.63       0.46       0.00       0.46        0.36     5.91   0.418
  S10l2                      1.10       0.00       0.00       0.63       0.46       0.00       0.46        0.36     5.91   0.418
  S11a                       1.10       0.00       0.00       0.72       0.37       0.00       0.37        0.27     4.44   0.341
  S11b                       1.10       0.00       0.00       0.43       0.62       0.03       0.65        0.64     9.88   0.595
  S12a                       1.10       0.00       0.00       0.89       0.20       0.00       0.20        0.03     0.44   0.185
  S14a1                      1.10       0.00       0.00       0.74       0.35       0.00       0.35        0.24     3.95   0.321
  S14a2                      1.10       0.00       0.00       0.74       0.35       0.00       0.35        0.35     5.81   0.321
  S14b                       1.10       0.00       0.00       0.64       0.45       0.00       0.45        0.54     8.79   0.409
  S14c                       1.10       0.00       0.00       0.70       0.39       0.00       0.39        0.52     8.52   0.350
  S14e1                      1.10       0.00       0.00       0.80       0.29       0.00       0.29        0.08     1.29   0.263
  S14e2                      1.10       0.00       0.00       0.80       0.29       0.00       0.29        0.08     1.29   0.263
  S18a                       1.10       0.00       0.00       0.81       0.28       0.00       0.28        0.04     0.62   0.253
  S1a                        1.10       0.00       0.00       0.53       0.51       0.04       0.55        0.07     1.05   0.503
  S1Aa                       1.10       0.00       0.00       0.59       0.47       0.03       0.50        0.50     7.82   0.451
  S1Ab                       1.10       0.00       0.00       0.60       0.45       0.03       0.48        0.34     5.25   0.439
  S1b                        1.10       0.00       0.00       0.60       0.47       0.02       0.49        0.51     8.09   0.445
  S1c                        1.10       0.00       0.00       0.59       0.46       0.04       0.50        0.21     3.24   0.454
  S1d                        1.10       0.00       0.00       0.60       0.45       0.04       0.49        0.48     7.33   0.441
  S20a1                      1.10       0.00       0.00       0.78       0.31       0.00       0.31        0.04     0.69   0.282
  S20a2                      1.10       0.00       0.00       0.78       0.31       0.00       0.31        0.45     7.36   0.282
  S20Aa                      1.10       0.00       0.00       0.81       0.28       0.00       0.28        0.21     3.46   0.253
  S20Ab                      1.10       0.00       0.00       0.75       0.34       0.00       0.34        0.39     6.38   0.312
  S20Ac                      1.10       0.00       0.00       0.86       0.24       0.00       0.24        0.22     3.60   0.214
  S20Ad1                     1.10       0.00       0.00       1.01       0.09       0.00       0.09        0.06     0.94   0.078
  S20Ad2                     1.10       0.00       0.00       1.01       0.09       0.00       0.09        0.06     0.98   0.078
  S20Ae                      1.10       0.00       0.00       0.84       0.26       0.00       0.26        0.37     6.07   0.234
  S21a                       1.10       0.00       0.00       0.49       0.59       0.00       0.59        0.18     2.95   0.535
  S28a                       1.10       0.00       0.00       0.81       0.28       0.00       0.28        0.19     3.08   0.257
  S29a                       1.10       0.00       0.00       0.81       0.28       0.00       0.28        0.05     0.78   0.257
  S2a                        1.10       0.00       0.00       0.35       0.70       0.03       0.73        0.07     1.05   0.664
  S2Aa                       1.10       0.00       0.00       0.82       0.27       0.00       0.27        0.24     3.97   0.243
  S2Ab                       1.10       0.00       0.00       0.69       0.40       0.00       0.40        0.40     6.55   0.359
  S2Ac                       1.10       0.00       0.00       0.68       0.41       0.00       0.41        0.47     7.69   0.370
  S2b                        1.10       0.00       0.00       0.73       0.36       0.00       0.36        0.33     5.37   0.331
  S2c                        1.10       0.00       0.00       0.66       0.41       0.02       0.43        0.30     4.58   0.391
  S2d                        1.10       0.00       0.00       0.69       0.40       0.00       0.40        0.19     3.07   0.366
  S2e                        1.10       0.00       0.00       0.70       0.35       0.04       0.39        0.18     2.60   0.352
  S2f                        1.10       0.00       0.00       0.72       0.37       0.00       0.37        0.26     4.22   0.334
  S2i                        1.10       0.00       0.00       0.63       0.46       0.00       0.46        0.01     0.19   0.419
  S30a                       1.10       0.00       0.00       0.92       0.18       0.00       0.18        0.06     1.03   0.163
  S30a1                      1.10       0.00       0.00       0.76       0.28       0.05       0.33        0.12     1.66   0.298
  S30a2                      1.10       0.00       0.00       0.76       0.28       0.05       0.33        0.12     1.66   0.298
  S30a3                      1.10       0.00       0.00       0.76       0.28       0.05       0.33        0.12     1.66   0.298
  S30a4                      1.10       0.00       0.00       0.76       0.28       0.05       0.33        0.12     1.66   0.298
  S30a5                      1.10       0.00       0.00       0.76       0.28       0.05       0.33        0.12     1.66   0.298
  S38a                       1.10       0.00       0.00       0.74       0.35       0.00       0.35        0.02     0.26   0.321
  S3a                        1.10       0.00       0.00       0.62       0.47       0.00       0.47        0.19     3.15   0.429
  S41a                       1.10       0.00       0.00       0.89       0.21       0.00       0.21        0.11     1.79   0.187
  S42a1                      1.10       0.00       0.00       0.81       0.28       0.00       0.28        0.06     1.06   0.257
  S42a2                      1.10       0.00       0.00       0.81       0.28       0.00       0.28        0.06     1.06   0.257
  S43a                       1.10       0.00       0.00       0.81       0.28       0.00       0.28        0.05     0.78   0.257
  S44a                       1.10       0.00       0.00       0.65       0.44       0.00       0.44        0.06     0.95   0.399
  S44aX                      1.10       0.00       0.00       0.65       0.43       0.00       0.43        0.06     0.66   0.394
  S45a                       1.10       0.00       0.00       0.72       0.37       0.00       0.37        0.13     2.20   0.341
  S45Aa                      1.10       0.00       0.00       0.63       0.43       0.03       0.46        0.30     4.57   0.422
  S45Ab                      1.10       0.00       0.00       0.71       0.37       0.01       0.38        1.71    26.39   0.345
  S45aX                      1.10       0.00       0.00       0.72       0.37       0.00       0.37        0.13     1.18   0.333
  S46a                       1.10       0.00       0.00       0.64       0.45       0.00       0.45        0.11     1.78   0.409
  S46aX                      1.10       0.00       0.00       0.64       0.44       0.00       0.44        0.11     0.90   0.398
  S47a                       1.10       0.00       0.00       0.68       0.37       0.04       0.41        0.16     2.35   0.370
  S47b                       1.10       0.00       0.00       0.63       0.42       0.04       0.46        0.10     1.50   0.415
  S47x                       1.10       0.00       0.00       0.99       0.10       0.00       0.10        0.04     0.21   0.091
  S48a                       1.10       0.00       0.00       0.73       0.36       0.00       0.36        0.59     9.61   0.331
  S48b                       1.10       0.00       0.00       0.69       0.40       0.00       0.40        0.40     6.47   0.360
  S48c                       1.10       0.00       0.00       0.66       0.40       0.04       0.43        0.56     8.35   0.393
  S48d                       1.10       0.00       0.00       0.67       0.37       0.04       0.42        0.51     7.47   0.378
  S49a                       1.10       0.00       0.00       0.78       0.31       0.00       0.31        0.23     3.76   0.285
  S49b                       1.10       0.00       0.00       0.80       0.29       0.00       0.29        0.25     4.17   0.263
  S49c                       1.10       0.00       0.00       0.78       0.31       0.00       0.31        0.34     5.60   0.284
  S49d                       1.10       0.00       0.00       0.78       0.31       0.00       0.31        0.14     2.37   0.285
  S4a                        1.10       0.00       0.00       0.74       0.35       0.00       0.35        0.40     6.55   0.319
  S4b                        1.10       0.00       0.00       0.74       0.35       0.00       0.35        0.39     6.43   0.319
  S50a                       1.10       0.00       0.00       0.67       0.42       0.00       0.42        0.09     1.47   0.380
  S52a                       1.10       0.00       0.00       0.77       0.32       0.00       0.32        0.15     2.44   0.292
  S54a                       1.10       0.00       0.00       0.59       0.46       0.04       0.50        0.34     5.21   0.452
  S54b                       1.10       0.00       0.00       0.70       0.39       0.00       0.39        0.48     7.86   0.350
  S54c                       1.10       0.00       0.00       0.64       0.45       0.00       0.45        0.57     9.28   0.408
  S54d                       1.10       0.00       0.00       0.82       0.25       0.02       0.27        0.29     4.36   0.246
  S54e                       1.10       0.00       0.00       0.68       0.41       0.00       0.41        0.42     6.88   0.375
  S54f                       1.10       0.00       0.00       0.74       0.35       0.00       0.35        0.31     5.08   0.320
  S54g                       1.10       0.00       0.00       0.74       0.35       0.00       0.35        0.34     5.54   0.320
  S54h                       1.10       0.00       0.00       0.69       0.35       0.04       0.40        0.19     2.79   0.362
  S54i                       1.10       0.00       0.00       0.73       0.31       0.06       0.37        0.09     1.22   0.334
  S54j1                      1.10       0.00       0.00       0.66       0.38       0.05       0.43        0.17     2.42   0.390
  S54j2                      1.10       0.00       0.00       0.66       0.38       0.05       0.43        0.17     2.42   0.390
  S54x                       1.10       0.00       0.00       0.99       0.10       0.00       0.10        0.90     7.27   0.095
  S59a                       1.10       0.00       0.00       0.63       0.46       0.00       0.46        0.57     9.34   0.418
  S59b                       1.10       0.00       0.00       0.62       0.47       0.00       0.47        0.65    10.67   0.427
  S59c                       1.10       0.00       0.00       0.64       0.45       0.00       0.45        0.44     7.18   0.408
  S5a                        1.10       0.00       0.00       0.37       0.67       0.04       0.71        0.11     1.66   0.648
  S5b                        1.10       0.00       0.00       0.22       0.86       0.00       0.86        0.09     1.48   0.779
  S60a                       1.10       0.00       0.00       0.63       0.46       0.00       0.46        0.42     6.88   0.418
  S60b                       1.10       0.00       0.00       0.50       0.56       0.03       0.59        0.54     8.39   0.532
  S60c                       1.10       0.00       0.00       0.70       0.36       0.02       0.38        0.41     6.31   0.350
  S60d                       1.10       0.00       0.00       0.68       0.41       0.00       0.41        0.42     6.82   0.369
  S60x                       1.10       0.00       0.00       0.99       0.10       0.00       0.10        0.48     2.70   0.091
  S61a                       1.10       0.00       0.00       0.38       0.70       0.00       0.70        0.05     0.88   0.633
  S61b                       1.10       0.00       0.00       0.63       0.46       0.00       0.46        0.12     2.03   0.418
  S62a                       1.10       0.00       0.00       0.50       0.58       0.00       0.58        0.01     0.12   0.529
  S64a                       1.10       0.00       0.00       0.59       0.45       0.04       0.49        0.31     4.57   0.449
  S64b                       1.10       0.00       0.00       0.68       0.41       0.00       0.41        0.19     3.07   0.370
  S64c                       1.10       0.00       0.00       0.69       0.35       0.05       0.40        0.04     0.59   0.365
  S64d                       1.10       0.00       0.00       0.68       0.41       0.00       0.41        0.17     2.71   0.370
  S65a                       1.10       0.00       0.00       0.64       0.40       0.05       0.45        0.42     6.04   0.407
  S65b1                      1.10       0.00       0.00       0.73       0.32       0.04       0.36        0.31     4.54   0.326
  S65b2                      1.10       0.00       0.00       0.73       0.32       0.04       0.37        0.21     3.02   0.333
  S65c1                      1.10       0.00       0.00       0.52       0.52       0.04       0.56        0.55     8.40   0.510
  S65c2                      1.10       0.00       0.00       0.52       0.52       0.04       0.57        0.27     4.14   0.517
  S66a                       1.10       0.00       0.00       0.69       0.34       0.06       0.40        0.04     0.53   0.366
  S66b                       1.10       0.00       0.00       0.69       0.35       0.05       0.41        0.32     4.55   0.368
  S66c                       1.10       0.00       0.00       0.64       0.40       0.05       0.45        0.43     6.20   0.406
  S66d                       1.10       0.00       0.00       0.59       0.45       0.04       0.49        0.59     8.79   0.449
  S66e                       1.10       0.00       0.00       0.54       0.51       0.03       0.54        0.64     9.99   0.493
  S66f                       1.10       0.00       0.00       0.67       0.42       0.00       0.42        0.56     9.13   0.379
  S66g                       1.10       0.00       0.00       0.67       0.42       0.00       0.42        0.42     6.94   0.379
  S66h                       1.10       0.00       0.00       0.64       0.43       0.02       0.44        0.66    10.39   0.404
  S66i                       1.10       0.00       0.00       0.67       0.38       0.03       0.42        0.49     7.44   0.380
  S66j                       1.10       0.00       0.00       0.68       0.38       0.03       0.41        0.57     8.81   0.373
  S66k                       1.10       0.00       0.00       0.62       0.42       0.05       0.47        0.20     2.90   0.425
  S66l                       1.10       0.00       0.00       0.67       0.38       0.03       0.42        0.27     4.10   0.380
  S66m                       1.10       0.00       0.00       0.68       0.38       0.03       0.41        0.56     8.64   0.372
  S66X                       1.10       0.00       0.00       0.88       0.19       0.00       0.19        2.52    13.26   0.176
  S67a                       1.10       0.00       0.00       0.70       0.35       0.04       0.39        0.55     8.08   0.359
  S69a                       1.10       0.00       0.00       0.76       0.33       0.00       0.33        0.17     2.71   0.302
  S6a                        1.10       0.00       0.00       0.49       0.56       0.04       0.59        0.21     3.28   0.540
  S70a                       1.10       0.00       0.00       0.67       0.42       0.00       0.42        0.28     4.61   0.380
  S70b                       1.10       0.00       0.00       0.68       0.41       0.00       0.41        0.37     6.12   0.370
  S71a                       1.10       0.00       0.00       0.68       0.41       0.00       0.41        0.33     5.36   0.370
  S71b                       1.10       0.00       0.00       0.68       0.41       0.00       0.41        0.35     5.65   0.369
  S72a                       1.10       0.00       0.00       0.69       0.37       0.03       0.40        0.26     4.01   0.360
  S72b                       1.10       0.00       0.00       0.71       0.38       0.00       0.38        0.45     7.42   0.345
  S72x                       1.10       0.00       0.00       1.02       0.08       0.00       0.08        0.05     0.45   0.071
  S73a                       1.10       0.00       0.00       0.65       0.44       0.00       0.44        0.07     1.13   0.399
  S73b                       1.10       0.00       0.00       0.63       0.43       0.03       0.46        0.57     8.73   0.415
  S74a                       1.10       0.00       0.00       0.75       0.34       0.00       0.34        0.05     0.82   0.312
  S74Aa                      1.10       0.00       0.00       0.58       0.46       0.05       0.51        0.03     0.41   0.466
  S75b                       1.10       0.00       0.00       0.73       0.36       0.00       0.36        0.12     1.97   0.331
  S75c                       1.10       0.00       0.00       0.69       0.37       0.02       0.40        0.40     6.14   0.361
  S75d                       1.10       0.00       0.00       0.56       0.49       0.03       0.52        0.48     7.42   0.474
  S77a                       1.10       0.00       0.00       0.72       0.33       0.04       0.37        0.44     6.48   0.338
  S77b                       1.10       0.00       0.00       0.65       0.41       0.03       0.44        0.74    11.23   0.398
  S79a                       1.10       0.00       0.00       0.71       0.35       0.03       0.38        0.44     6.63   0.347
  S79b                       1.10       0.00       0.00       0.70       0.35       0.03       0.39        0.49     7.27   0.351
  S7a                        1.10       0.00       0.00       0.69       0.36       0.04       0.40        0.16     2.32   0.365
  S80a                       1.10       0.00       0.00       0.97       0.13       0.00       0.13        0.09     1.47   0.117
  S80Aa                      1.10       0.00       0.00       0.64       0.45       0.00       0.45        0.71    11.71   0.408
  S80Ab                      1.10       0.00       0.00       0.66       0.43       0.00       0.43        0.10     1.65   0.390
  S81a                       1.10       0.00       0.00       0.71       0.32       0.06       0.38        0.09     1.28   0.347
  S82a1                      1.10       0.00       0.00       1.04       0.04       0.01       0.06        0.02     0.25   0.051
  S82a2                      1.10       0.00       0.00       0.90       0.16       0.04       0.20        0.41     5.50   0.180
  S83a                       1.10       0.00       0.00       1.05       0.05       0.00       0.05        0.06     0.98   0.044
  S83b                       1.10       0.00       0.00       1.07       0.02       0.00       0.02        0.03     0.43   0.022
  S83c                       1.10       0.00       0.00       1.07       0.03       0.00       0.03        0.01     0.19   0.028
  S83X                       1.10       0.00       0.00       1.10       0.00       0.00       0.00        0.01     0.08   0.003
  S8a                        1.10       0.00       0.00       0.44       0.62       0.02       0.64        0.45     7.16   0.580
  S8b                        1.10       0.00       0.00       0.66       0.37       0.06       0.43        0.04     0.61   0.395
  S9a                        1.10       0.00       0.00       0.63       0.47       0.00       0.47        0.42     6.87   0.423
  S9b                        1.10       0.00       0.00       0.59       0.46       0.03       0.49        0.57     8.74   0.449
  S9c                        1.10       0.00       0.00       0.45       0.60       0.04       0.64        0.36     5.60   0.580
  S9d                        1.10       0.00       0.00       0.59       0.46       0.04       0.50        0.98    14.75   0.454
  S9e                        1.10       0.00       0.00       0.63       0.46       0.00       0.46        0.86    13.87   0.423
  S9f                        1.10       0.00       0.00       0.75       0.27       0.07       0.34        0.03     0.44   0.307
  S9g                        1.10       0.00       0.00       0.38       0.67       0.03       0.70        0.24     3.80   0.636
  SN06a                      1.10       0.00       0.00       0.64       0.45       0.00       0.45        0.45     7.39   0.407
  SN06b                      1.10       0.00       0.00       0.68       0.41       0.00       0.41        0.39     6.37   0.374
  SN06c                      1.10       0.00       0.00       0.62       0.47       0.00       0.47        0.41     6.77   0.428
  SN06d                      1.10       0.00       0.00       0.72       0.37       0.00       0.37        0.50     8.23   0.340
  SN06e                      1.10       0.00       0.00       0.65       0.44       0.00       0.44        0.50     8.27   0.398
  SN06f                      1.10       0.00       0.00       0.68       0.41       0.00       0.41        0.36     5.95   0.370
  SN100a                     1.10       0.00       0.00       0.67       0.39       0.04       0.42        0.24     3.54   0.385
  SN100b                     1.10       0.00       0.00       0.66       0.42       0.00       0.42        0.62    10.20   0.385
  SN100c                     1.10       0.00       0.00       0.64       0.45       0.00       0.45        0.55     8.94   0.407
  SN100d                     1.10       0.00       0.00       0.65       0.44       0.00       0.44        0.60     9.87   0.396
  SN100e                     1.10       0.00       0.00       0.65       0.43       0.00       0.43        0.58     9.52   0.395
  SN101a                     1.10       0.00       0.00       0.62       0.43       0.03       0.47        0.58     8.80   0.426
  SN102a                     1.10       0.00       0.00       0.69       0.40       0.00       0.40        0.22     3.66   0.364
  SN103a                     1.10       0.00       0.00       0.66       0.43       0.00       0.43        0.39     6.46   0.389
  SO1a                       1.10       0.00       0.00       0.78       0.31       0.00       0.31        0.17     2.75   0.280
  SO1b                       1.10       0.00       0.00       0.70       0.34       0.05       0.40        0.18     2.56   0.360
  SO1c                       1.10       0.00       0.00       0.78       0.31       0.00       0.31        0.03     0.51   0.280
  SO1d                       1.10       0.00       0.00       0.71       0.33       0.05       0.38        0.12     1.74   0.349
  SO1e                       1.10       0.00       0.00       0.71       0.34       0.04       0.38        0.31     4.57   0.345
  SO2b                       1.10       0.00       0.00       0.67       0.36       0.06       0.42        0.02     0.30   0.385
  SO3a                       1.10       0.00       0.00       0.81       0.28       0.00       0.28        0.24     3.97   0.257
  SO3b                       1.10       0.00       0.00       0.81       0.28       0.00       0.28        0.46     7.46   0.257
  SO3c                       1.10       0.00       0.00       0.75       0.34       0.00       0.34        0.06     0.90   0.311
  SO5a                       1.10       0.00       0.00       0.69       0.36       0.04       0.40        0.55     8.19   0.363
  SO5b                       1.10       0.00       0.00       0.66       0.39       0.05       0.43        0.48     7.01   0.392
  SO5c                       1.10       0.00       0.00       0.80       0.26       0.04       0.30        0.25     3.50   0.269
  SO5e                       1.10       0.00       0.00       0.68       0.41       0.00       0.41        0.43     7.01   0.369
  SO6a1                      1.10       0.00       0.00       0.82       0.27       0.00       0.27        0.17     2.85   0.249
  SO6a2                      1.10       0.00       0.00       0.82       0.27       0.00       0.27        0.17     2.85   0.249
  SO6b                       1.10       0.00       0.00       0.89       0.19       0.01       0.20        0.29     4.47   0.182
  SO7a                       1.10       0.00       0.00       0.88       0.19       0.02       0.21        0.29     4.33   0.191
  SO8a                       1.10       0.00       0.00       0.58       0.49       0.01       0.50        0.75    11.58   0.456
  SO8b                       1.10       0.00       0.00       0.58       0.47       0.04       0.51        0.28     4.27   0.460
  SO8e                       1.10       0.00       0.00       0.67       0.38       0.04       0.42        0.48     7.11   0.380
  SO8f1                      1.10       0.00       0.00       0.70       0.38       0.02       0.39        1.47    22.72   0.358
  SO8f2                      1.10       0.00       0.00       0.70       0.38       0.02       0.39        1.47    22.72   0.358
  SO8g                       1.10       0.00       0.00       0.72       0.35       0.02       0.37        0.92    14.23   0.338
  SO8h                       1.10       0.00       0.00       0.70       0.36       0.04       0.39        1.27    18.62   0.358
  SOintc                     1.10       0.00       0.00       0.62       0.41       0.06       0.47        0.11     1.52   0.423
  SOinte                     1.10       0.00       0.00       0.16       0.90       0.02       0.92        0.01     0.20   0.834
  SOintg                     1.10       0.00       0.00       0.65       0.39       0.06       0.44        0.04     0.63   0.402
  SOinth                     1.10       0.00       0.00       0.68       0.41       0.00       0.41        0.11     1.73   0.369
  SOinti                     1.10       0.00       0.00       0.64       0.41       0.04       0.45        0.05     0.68   0.406
  SOintl                     1.10       0.00       0.00       0.52       0.53       0.03       0.57        0.40     6.20   0.514
  SS11a                      1.10       0.00       0.00       0.57       0.48       0.03       0.52        0.59     9.08   0.469
  SS11b                      1.10       0.00       0.00       0.43       0.62       0.03       0.65        0.86    13.36   0.592
  SS15a                      1.10       0.00       0.00       0.68       0.36       0.05       0.41        0.08     1.13   0.376
  SS15b                      1.10       0.00       0.00       0.74       0.31       0.04       0.35        0.23     3.24   0.322
  SS16a                      1.10       0.00       0.00       0.72       0.37       0.00       0.37        0.24     3.91   0.335
  SS16b                      1.10       0.00       0.00       0.71       0.38       0.00       0.38        0.30     4.85   0.342
  SS16c                      1.10       0.00       0.00       0.81       0.28       0.00       0.28        0.25     4.03   0.253
  SS1a                       1.10       0.00       0.00       0.59       0.45       0.05       0.50        0.05     0.74   0.455
  SS24a                      1.10       0.00       0.00       0.68       0.35       0.06       0.41        0.02     0.24   0.376
  SS3a                       1.10       0.00       0.00       0.53       0.52       0.03       0.55        0.77    11.88   0.503
  SS4a                       1.10       0.00       0.00       0.53       0.52       0.03       0.56        0.11     1.69   0.507
  SS6a                       1.10       0.00       0.00       0.57       0.51       0.00       0.51        0.28     4.51   0.467
  SS7a                       1.10       0.00       0.00       0.58       0.46       0.05       0.51        0.15     2.24   0.464
  SS7b                       1.10       0.00       0.00       0.61       0.45       0.03       0.48        0.50     7.78   0.433
  SS9a                       1.10       0.00       0.00       0.49       0.55       0.04       0.59        0.51     7.86   0.537
  SS9b                       1.10       0.00       0.00       0.60       0.49       0.00       0.49        0.36     5.83   0.444
  STM11                      1.10       0.00       0.00       0.86       0.24       0.00       0.24        0.11     1.73   0.214
  STM21a                     1.10       0.00       0.00       0.95       0.09       0.06       0.15        0.03     0.59   0.135
  STM21b                     1.10       0.00       0.00       0.97       0.09       0.04       0.13        0.07     1.14   0.114
  STM24                      1.10       0.00       0.00       0.69       0.40       0.00       0.40        0.03     0.54   0.360
  STM25                      1.10       0.00       0.00       0.49       0.55       0.05       0.59        0.04     0.67   0.540
  

  Analysis begun on:  Fri Nov 29 09:58:30 2019
  Analysis ended on:  Fri Nov 29 09:58:30 2019
  Total elapsed time: < 1 sec