
  EPA STORM WATER MANAGEMENT MODEL - VERSION 5.1 (Build 5.1.013)
  --------------------------------------------------------------

  
  *********************************************************
  NOTE: The summary statistics displayed in this report are
  based on results found at every computational time step,  
  not just on results from each reporting time step.
  *********************************************************
  
  ****************
  Analysis Options
  ****************
  Flow Units ............... MGD
  Process Models:
    Rainfall/Runoff ........ YES
    RDII ................... NO
    Snowmelt ............... NO
    Groundwater ............ NO
    Flow Routing ........... NO
    Water Quality .......... NO
  Infiltration Method ...... HORTON
  Surcharge Method ......... EXTRAN
  Starting Date ............ 05/17/1999 00:00:00
  Ending Date .............. 05/18/1999 00:00:00
  Antecedent Dry Days ...... 0.0
  Report Time Step ......... 00:15:00
  Wet Time Step ............ 00:05:00
  Dry Time Step ............ 01:00:00
  
  
  **************************        Volume         Depth
  Runoff Quantity Continuity     acre-feet        inches
  **************************     ---------       -------
  Total Precipitation ......         0.000         0.000
  Evaporation Loss .........         0.000         0.000
  Infiltration Loss ........         0.000         0.000
  Surface Runoff ...........         0.000         0.000
  Final Storage ............         0.000         0.000
  Continuity Error (%) .....         0.000
  
  
  ***************************
  Subcatchment Runoff Summary
  ***************************
  
  ------------------------------------------------------------------------------------------------------------------------------
                            Total      Total      Total      Total     Imperv       Perv      Total       Total     Peak  Runoff
                           Precip      Runon       Evap      Infil     Runoff     Runoff     Runoff      Runoff   Runoff   Coeff
  Subcatchment                 in         in         in         in         in         in         in    10^6 gal      MGD
  ------------------------------------------------------------------------------------------------------------------------------
  035a                       0.00       0.00       0.00       0.00       0.00       0.00       0.00        0.00     0.00   0.000
  035b                       0.00       0.00       0.00       0.00       0.00       0.00       0.00        0.00     0.00   0.000
  039a                       0.00       0.00       0.00       0.00       0.00       0.00       0.00        0.00     0.00   0.000
  040a1                      0.00       0.00       0.00       0.00       0.00       0.00       0.00        0.00     0.00   0.000
  040a2                      0.00       0.00       0.00       0.00       0.00       0.00       0.00        0.00     0.00   0.000
  040b                       0.00       0.00       0.00       0.00       0.00       0.00       0.00        0.00     0.00   0.000
  040c                       0.00       0.00       0.00       0.00       0.00       0.00       0.00        0.00     0.00   0.000
  040d                       0.00       0.00       0.00       0.00       0.00       0.00       0.00        0.00     0.00   0.000
  040e                       0.00       0.00       0.00       0.00       0.00       0.00       0.00        0.00     0.00   0.000
  040f                       0.00       0.00       0.00       0.00       0.00       0.00       0.00        0.00     0.00   0.000
  040g                       0.00       0.00       0.00       0.00       0.00       0.00       0.00        0.00     0.00   0.000
  250a                       0.00       0.00       0.00       0.00       0.00       0.00       0.00        0.00     0.00   0.000
  BBa                        0.00       0.00       0.00       0.00       0.00       0.00       0.00        0.00     0.00   0.000
  BBb                        0.00       0.00       0.00       0.00       0.00       0.00       0.00        0.00     0.00   0.000
  BBc                        0.00       0.00       0.00       0.00       0.00       0.00       0.00        0.00     0.00   0.000
  BBd                        0.00       0.00       0.00       0.00       0.00       0.00       0.00        0.00     0.00   0.000
  BBe1                       0.00       0.00       0.00       0.00       0.00       0.00       0.00        0.00     0.00   0.000
  BBe2                       0.00       0.00       0.00       0.00       0.00       0.00       0.00        0.00     0.00   0.000
  BBf1                       0.00       0.00       0.00       0.00       0.00       0.00       0.00        0.00     0.00   0.000
  BBf2                       0.00       0.00       0.00       0.00       0.00       0.00       0.00        0.00     0.00   0.000
  BBf3                       0.00       0.00       0.00       0.00       0.00       0.00       0.00        0.00     0.00   0.000
  BBg1                       0.00       0.00       0.00       0.00       0.00       0.00       0.00        0.00     0.00   0.000
  BBg2                       0.00       0.00       0.00       0.00       0.00       0.00       0.00        0.00     0.00   0.000
  BBh                        0.00       0.00       0.00       0.00       0.00       0.00       0.00        0.00     0.00   0.000
  BBi                        0.00       0.00       0.00       0.00       0.00       0.00       0.00        0.00     0.00   0.000
  BBj                        0.00       0.00       0.00       0.00       0.00       0.00       0.00        0.00     0.00   0.000
  BBk                        0.00       0.00       0.00       0.00       0.00       0.00       0.00        0.00     0.00   0.000
  BBl                        0.00       0.00       0.00       0.00       0.00       0.00       0.00        0.00     0.00   0.000
  BBm                        0.00       0.00       0.00       0.00       0.00       0.00       0.00        0.00     0.00   0.000
  BBn                        0.00       0.00       0.00       0.00       0.00       0.00       0.00        0.00     0.00   0.000
  BBo                        0.00       0.00       0.00       0.00       0.00       0.00       0.00        0.00     0.00   0.000
  BBp                        0.00       0.00       0.00       0.00       0.00       0.00       0.00        0.00     0.00   0.000
  BBq                        0.00       0.00       0.00       0.00       0.00       0.00       0.00        0.00     0.00   0.000
  BBr                        0.00       0.00       0.00       0.00       0.00       0.00       0.00        0.00     0.00   0.000
  DILLEa                     0.00       0.00       0.00       0.00       0.00       0.00       0.00        0.00     0.00   0.000
  DILLEb                     0.00       0.00       0.00       0.00       0.00       0.00       0.00        0.00     0.00   0.000
  DILLEc                     0.00       0.00       0.00       0.00       0.00       0.00       0.00        0.00     0.00   0.000
  DS0150a                    0.00       0.00       0.00       0.00       0.00       0.00       0.00        0.00     0.00   0.000
  DS0150a!                   0.00       0.00       0.00       0.00       0.00       0.00       0.00        0.00     0.00   0.000
  DS0150a!!                  0.00       0.00       0.00       0.00       0.00       0.00       0.00        0.00     0.00   0.000
  DS0150a!!!                 0.00       0.00       0.00       0.00       0.00       0.00       0.00        0.00     0.00   0.000
  DS0150a!!!!                0.00       0.00       0.00       0.00       0.00       0.00       0.00        0.00     0.00   0.000
  DS0150a!!!!!               0.00       0.00       0.00       0.00       0.00       0.00       0.00        0.00     0.00   0.000
  DS0150a!!!!!!              0.00       0.00       0.00       0.00       0.00       0.00       0.00        0.00     0.00   0.000
  DS0150a!!!!!!!             0.00       0.00       0.00       0.00       0.00       0.00       0.00        0.00     0.00   0.000
  DS0150b                    0.00       0.00       0.00       0.00       0.00       0.00       0.00        0.00     0.00   0.000
  DS0150c                    0.00       0.00       0.00       0.00       0.00       0.00       0.00        0.00     0.00   0.000
  DSO145                     0.00       0.00       0.00       0.00       0.00       0.00       0.00        0.00     0.00   0.000
  DSO147                     0.00       0.00       0.00       0.00       0.00       0.00       0.00        0.00     0.00   0.000
  DSO154                     0.00       0.00       0.00       0.00       0.00       0.00       0.00        0.00     0.00   0.000
  DSO155D                    0.00       0.00       0.00       0.00       0.00       0.00       0.00        0.00     0.00   0.000
  DSO159                     0.00       0.00       0.00       0.00       0.00       0.00       0.00        0.00     0.00   0.000
  MC1Aa                      0.00       0.00       0.00       0.00       0.00       0.00       0.00        0.00     0.00   0.000
  MC32                       0.00       0.00       0.00       0.00       0.00       0.00       0.00        0.00     0.00   0.000
  MC32X                      0.00       0.00       0.00       0.00       0.00       0.00       0.00        0.00     0.00   0.000
  MC33                       0.00       0.00       0.00       0.00       0.00       0.00       0.00        0.00     0.00   0.000
  MC33X                      0.00       0.00       0.00       0.00       0.00       0.00       0.00        0.00     0.00   0.000
  MC47a                      0.00       0.00       0.00       0.00       0.00       0.00       0.00        0.00     0.00   0.000
  MC47b                      0.00       0.00       0.00       0.00       0.00       0.00       0.00        0.00     0.00   0.000
  MRa                        0.00       0.00       0.00       0.00       0.00       0.00       0.00        0.00     0.00   0.000
  MRb                        0.00       0.00       0.00       0.00       0.00       0.00       0.00        0.00     0.00   0.000
  MRc                        0.00       0.00       0.00       0.00       0.00       0.00       0.00        0.00     0.00   0.000
  MRd                        0.00       0.00       0.00       0.00       0.00       0.00       0.00        0.00     0.00   0.000
  MRe                        0.00       0.00       0.00       0.00       0.00       0.00       0.00        0.00     0.00   0.000
  MRf                        0.00       0.00       0.00       0.00       0.00       0.00       0.00        0.00     0.00   0.000
  MRg                        0.00       0.00       0.00       0.00       0.00       0.00       0.00        0.00     0.00   0.000
  MRh                        0.00       0.00       0.00       0.00       0.00       0.00       0.00        0.00     0.00   0.000
  S04a                       0.00       0.00       0.00       0.00       0.00       0.00       0.00        0.00     0.00   0.000
  S10a                       0.00       0.00       0.00       0.00       0.00       0.00       0.00        0.00     0.00   0.000
  S10b                       0.00       0.00       0.00       0.00       0.00       0.00       0.00        0.00     0.00   0.000
  S10c                       0.00       0.00       0.00       0.00       0.00       0.00       0.00        0.00     0.00   0.000
  S10d                       0.00       0.00       0.00       0.00       0.00       0.00       0.00        0.00     0.00   0.000
  S10e                       0.00       0.00       0.00       0.00       0.00       0.00       0.00        0.00     0.00   0.000
  S10f                       0.00       0.00       0.00       0.00       0.00       0.00       0.00        0.00     0.00   0.000
  S10g                       0.00       0.00       0.00       0.00       0.00       0.00       0.00        0.00     0.00   0.000
  S10h                       0.00       0.00       0.00       0.00       0.00       0.00       0.00        0.00     0.00   0.000
  S10i                       0.00       0.00       0.00       0.00       0.00       0.00       0.00        0.00     0.00   0.000
  S10j                       0.00       0.00       0.00       0.00       0.00       0.00       0.00        0.00     0.00   0.000
  S10k                       0.00       0.00       0.00       0.00       0.00       0.00       0.00        0.00     0.00   0.000
  S10l1                      0.00       0.00       0.00       0.00       0.00       0.00       0.00        0.00     0.00   0.000
  S10l2                      0.00       0.00       0.00       0.00       0.00       0.00       0.00        0.00     0.00   0.000
  S11a                       0.00       0.00       0.00       0.00       0.00       0.00       0.00        0.00     0.00   0.000
  S11b                       0.00       0.00       0.00       0.00       0.00       0.00       0.00        0.00     0.00   0.000
  S12a                       0.00       0.00       0.00       0.00       0.00       0.00       0.00        0.00     0.00   0.000
  S14a1                      0.00       0.00       0.00       0.00       0.00       0.00       0.00        0.00     0.00   0.000
  S14a2                      0.00       0.00       0.00       0.00       0.00       0.00       0.00        0.00     0.00   0.000
  S14b                       0.00       0.00       0.00       0.00       0.00       0.00       0.00        0.00     0.00   0.000
  S14c                       0.00       0.00       0.00       0.00       0.00       0.00       0.00        0.00     0.00   0.000
  S14e1                      0.00       0.00       0.00       0.00       0.00       0.00       0.00        0.00     0.00   0.000
  S14e2                      0.00       0.00       0.00       0.00       0.00       0.00       0.00        0.00     0.00   0.000
  S18a                       0.00       0.00       0.00       0.00       0.00       0.00       0.00        0.00     0.00   0.000
  S1a                        0.00       0.00       0.00       0.00       0.00       0.00       0.00        0.00     0.00   0.000
  S1Aa                       0.00       0.00       0.00       0.00       0.00       0.00       0.00        0.00     0.00   0.000
  S1Ab                       0.00       0.00       0.00       0.00       0.00       0.00       0.00        0.00     0.00   0.000
  S1b                        0.00       0.00       0.00       0.00       0.00       0.00       0.00        0.00     0.00   0.000
  S1c                        0.00       0.00       0.00       0.00       0.00       0.00       0.00        0.00     0.00   0.000
  S1d                        0.00       0.00       0.00       0.00       0.00       0.00       0.00        0.00     0.00   0.000
  S20a1                      0.00       0.00       0.00       0.00       0.00       0.00       0.00        0.00     0.00   0.000
  S20a2                      0.00       0.00       0.00       0.00       0.00       0.00       0.00        0.00     0.00   0.000
  S20Aa                      0.00       0.00       0.00       0.00       0.00       0.00       0.00        0.00     0.00   0.000
  S20Ab                      0.00       0.00       0.00       0.00       0.00       0.00       0.00        0.00     0.00   0.000
  S20Ac                      0.00       0.00       0.00       0.00       0.00       0.00       0.00        0.00     0.00   0.000
  S20Ad1                     0.00       0.00       0.00       0.00       0.00       0.00       0.00        0.00     0.00   0.000
  S20Ad2                     0.00       0.00       0.00       0.00       0.00       0.00       0.00        0.00     0.00   0.000
  S20Ae                      0.00       0.00       0.00       0.00       0.00       0.00       0.00        0.00     0.00   0.000
  S21a                       0.00       0.00       0.00       0.00       0.00       0.00       0.00        0.00     0.00   0.000
  S28a                       0.00       0.00       0.00       0.00       0.00       0.00       0.00        0.00     0.00   0.000
  S29a                       0.00       0.00       0.00       0.00       0.00       0.00       0.00        0.00     0.00   0.000
  S2a                        0.00       0.00       0.00       0.00       0.00       0.00       0.00        0.00     0.00   0.000
  S2Aa                       0.00       0.00       0.00       0.00       0.00       0.00       0.00        0.00     0.00   0.000
  S2Ab                       0.00       0.00       0.00       0.00       0.00       0.00       0.00        0.00     0.00   0.000
  S2Ac                       0.00       0.00       0.00       0.00       0.00       0.00       0.00        0.00     0.00   0.000
  S2b                        0.00       0.00       0.00       0.00       0.00       0.00       0.00        0.00     0.00   0.000
  S2c                        0.00       0.00       0.00       0.00       0.00       0.00       0.00        0.00     0.00   0.000
  S2d                        0.00       0.00       0.00       0.00       0.00       0.00       0.00        0.00     0.00   0.000
  S2e                        0.00       0.00       0.00       0.00       0.00       0.00       0.00        0.00     0.00   0.000
  S2f                        0.00       0.00       0.00       0.00       0.00       0.00       0.00        0.00     0.00   0.000
  S2i                        0.00       0.00       0.00       0.00       0.00       0.00       0.00        0.00     0.00   0.000
  S30a                       0.00       0.00       0.00       0.00       0.00       0.00       0.00        0.00     0.00   0.000
  S30a1                      0.00       0.00       0.00       0.00       0.00       0.00       0.00        0.00     0.00   0.000
  S30a2                      0.00       0.00       0.00       0.00       0.00       0.00       0.00        0.00     0.00   0.000
  S30a3                      0.00       0.00       0.00       0.00       0.00       0.00       0.00        0.00     0.00   0.000
  S30a4                      0.00       0.00       0.00       0.00       0.00       0.00       0.00        0.00     0.00   0.000
  S30a5                      0.00       0.00       0.00       0.00       0.00       0.00       0.00        0.00     0.00   0.000
  S38a                       0.00       0.00       0.00       0.00       0.00       0.00       0.00        0.00     0.00   0.000
  S3a                        0.00       0.00       0.00       0.00       0.00       0.00       0.00        0.00     0.00   0.000
  S41a                       0.00       0.00       0.00       0.00       0.00       0.00       0.00        0.00     0.00   0.000
  S42a1                      0.00       0.00       0.00       0.00       0.00       0.00       0.00        0.00     0.00   0.000
  S42a2                      0.00       0.00       0.00       0.00       0.00       0.00       0.00        0.00     0.00   0.000
  S43a                       0.00       0.00       0.00       0.00       0.00       0.00       0.00        0.00     0.00   0.000
  S44a                       0.00       0.00       0.00       0.00       0.00       0.00       0.00        0.00     0.00   0.000
  S44aX                      0.00       0.00       0.00       0.00       0.00       0.00       0.00        0.00     0.00   0.000
  S45a                       0.00       0.00       0.00       0.00       0.00       0.00       0.00        0.00     0.00   0.000
  S45Aa                      0.00       0.00       0.00       0.00       0.00       0.00       0.00        0.00     0.00   0.000
  S45Ab                      0.00       0.00       0.00       0.00       0.00       0.00       0.00        0.00     0.00   0.000
  S45aX                      0.00       0.00       0.00       0.00       0.00       0.00       0.00        0.00     0.00   0.000
  S46a                       0.00       0.00       0.00       0.00       0.00       0.00       0.00        0.00     0.00   0.000
  S46aX                      0.00       0.00       0.00       0.00       0.00       0.00       0.00        0.00     0.00   0.000
  S47a                       0.00       0.00       0.00       0.00       0.00       0.00       0.00        0.00     0.00   0.000
  S47b                       0.00       0.00       0.00       0.00       0.00       0.00       0.00        0.00     0.00   0.000
  S47x                       0.00       0.00       0.00       0.00       0.00       0.00       0.00        0.00     0.00   0.000
  S48a                       0.00       0.00       0.00       0.00       0.00       0.00       0.00        0.00     0.00   0.000
  S48b                       0.00       0.00       0.00       0.00       0.00       0.00       0.00        0.00     0.00   0.000
  S48c                       0.00       0.00       0.00       0.00       0.00       0.00       0.00        0.00     0.00   0.000
  S48d                       0.00       0.00       0.00       0.00       0.00       0.00       0.00        0.00     0.00   0.000
  S49a                       0.00       0.00       0.00       0.00       0.00       0.00       0.00        0.00     0.00   0.000
  S49b                       0.00       0.00       0.00       0.00       0.00       0.00       0.00        0.00     0.00   0.000
  S49c                       0.00       0.00       0.00       0.00       0.00       0.00       0.00        0.00     0.00   0.000
  S49d                       0.00       0.00       0.00       0.00       0.00       0.00       0.00        0.00     0.00   0.000
  S4a                        0.00       0.00       0.00       0.00       0.00       0.00       0.00        0.00     0.00   0.000
  S4b                        0.00       0.00       0.00       0.00       0.00       0.00       0.00        0.00     0.00   0.000
  S50a                       0.00       0.00       0.00       0.00       0.00       0.00       0.00        0.00     0.00   0.000
  S52a                       0.00       0.00       0.00       0.00       0.00       0.00       0.00        0.00     0.00   0.000
  S54a                       0.00       0.00       0.00       0.00       0.00       0.00       0.00        0.00     0.00   0.000
  S54b                       0.00       0.00       0.00       0.00       0.00       0.00       0.00        0.00     0.00   0.000
  S54c                       0.00       0.00       0.00       0.00       0.00       0.00       0.00        0.00     0.00   0.000
  S54d                       0.00       0.00       0.00       0.00       0.00       0.00       0.00        0.00     0.00   0.000
  S54e                       0.00       0.00       0.00       0.00       0.00       0.00       0.00        0.00     0.00   0.000
  S54f                       0.00       0.00       0.00       0.00       0.00       0.00       0.00        0.00     0.00   0.000
  S54g                       0.00       0.00       0.00       0.00       0.00       0.00       0.00        0.00     0.00   0.000
  S54h                       0.00       0.00       0.00       0.00       0.00       0.00       0.00        0.00     0.00   0.000
  S54i                       0.00       0.00       0.00       0.00       0.00       0.00       0.00        0.00     0.00   0.000
  S54j1                      0.00       0.00       0.00       0.00       0.00       0.00       0.00        0.00     0.00   0.000
  S54j2                      0.00       0.00       0.00       0.00       0.00       0.00       0.00        0.00     0.00   0.000
  S54x                       0.00       0.00       0.00       0.00       0.00       0.00       0.00        0.00     0.00   0.000
  S59a                       0.00       0.00       0.00       0.00       0.00       0.00       0.00        0.00     0.00   0.000
  S59b                       0.00       0.00       0.00       0.00       0.00       0.00       0.00        0.00     0.00   0.000
  S59c                       0.00       0.00       0.00       0.00       0.00       0.00       0.00        0.00     0.00   0.000
  S5a                        0.00       0.00       0.00       0.00       0.00       0.00       0.00        0.00     0.00   0.000
  S5b                        0.00       0.00       0.00       0.00       0.00       0.00       0.00        0.00     0.00   0.000
  S60a                       0.00       0.00       0.00       0.00       0.00       0.00       0.00        0.00     0.00   0.000
  S60b                       0.00       0.00       0.00       0.00       0.00       0.00       0.00        0.00     0.00   0.000
  S60c                       0.00       0.00       0.00       0.00       0.00       0.00       0.00        0.00     0.00   0.000
  S60d                       0.00       0.00       0.00       0.00       0.00       0.00       0.00        0.00     0.00   0.000
  S60x                       0.00       0.00       0.00       0.00       0.00       0.00       0.00        0.00     0.00   0.000
  S61a                       0.00       0.00       0.00       0.00       0.00       0.00       0.00        0.00     0.00   0.000
  S61b                       0.00       0.00       0.00       0.00       0.00       0.00       0.00        0.00     0.00   0.000
  S62a                       0.00       0.00       0.00       0.00       0.00       0.00       0.00        0.00     0.00   0.000
  S64a                       0.00       0.00       0.00       0.00       0.00       0.00       0.00        0.00     0.00   0.000
  S64b                       0.00       0.00       0.00       0.00       0.00       0.00       0.00        0.00     0.00   0.000
  S64c                       0.00       0.00       0.00       0.00       0.00       0.00       0.00        0.00     0.00   0.000
  S64d                       0.00       0.00       0.00       0.00       0.00       0.00       0.00        0.00     0.00   0.000
  S65a                       0.00       0.00       0.00       0.00       0.00       0.00       0.00        0.00     0.00   0.000
  S65b1                      0.00       0.00       0.00       0.00       0.00       0.00       0.00        0.00     0.00   0.000
  S65b2                      0.00       0.00       0.00       0.00       0.00       0.00       0.00        0.00     0.00   0.000
  S65c1                      0.00       0.00       0.00       0.00       0.00       0.00       0.00        0.00     0.00   0.000
  S65c2                      0.00       0.00       0.00       0.00       0.00       0.00       0.00        0.00     0.00   0.000
  S66a                       0.00       0.00       0.00       0.00       0.00       0.00       0.00        0.00     0.00   0.000
  S66b                       0.00       0.00       0.00       0.00       0.00       0.00       0.00        0.00     0.00   0.000
  S66c                       0.00       0.00       0.00       0.00       0.00       0.00       0.00        0.00     0.00   0.000
  S66d                       0.00       0.00       0.00       0.00       0.00       0.00       0.00        0.00     0.00   0.000
  S66e                       0.00       0.00       0.00       0.00       0.00       0.00       0.00        0.00     0.00   0.000
  S66f                       0.00       0.00       0.00       0.00       0.00       0.00       0.00        0.00     0.00   0.000
  S66g                       0.00       0.00       0.00       0.00       0.00       0.00       0.00        0.00     0.00   0.000
  S66h                       0.00       0.00       0.00       0.00       0.00       0.00       0.00        0.00     0.00   0.000
  S66i                       0.00       0.00       0.00       0.00       0.00       0.00       0.00        0.00     0.00   0.000
  S66j                       0.00       0.00       0.00       0.00       0.00       0.00       0.00        0.00     0.00   0.000
  S66k                       0.00       0.00       0.00       0.00       0.00       0.00       0.00        0.00     0.00   0.000
  S66l                       0.00       0.00       0.00       0.00       0.00       0.00       0.00        0.00     0.00   0.000
  S66m                       0.00       0.00       0.00       0.00       0.00       0.00       0.00        0.00     0.00   0.000
  S66X                       0.00       0.00       0.00       0.00       0.00       0.00       0.00        0.00     0.00   0.000
  S67a                       0.00       0.00       0.00       0.00       0.00       0.00       0.00        0.00     0.00   0.000
  S69a                       0.00       0.00       0.00       0.00       0.00       0.00       0.00        0.00     0.00   0.000
  S6a                        0.00       0.00       0.00       0.00       0.00       0.00       0.00        0.00     0.00   0.000
  S70a                       0.00       0.00       0.00       0.00       0.00       0.00       0.00        0.00     0.00   0.000
  S70b                       0.00       0.00       0.00       0.00       0.00       0.00       0.00        0.00     0.00   0.000
  S71a                       0.00       0.00       0.00       0.00       0.00       0.00       0.00        0.00     0.00   0.000
  S71b                       0.00       0.00       0.00       0.00       0.00       0.00       0.00        0.00     0.00   0.000
  S72a                       0.00       0.00       0.00       0.00       0.00       0.00       0.00        0.00     0.00   0.000
  S72b                       0.00       0.00       0.00       0.00       0.00       0.00       0.00        0.00     0.00   0.000
  S72x                       0.00       0.00       0.00       0.00       0.00       0.00       0.00        0.00     0.00   0.000
  S73a                       0.00       0.00       0.00       0.00       0.00       0.00       0.00        0.00     0.00   0.000
  S73b                       0.00       0.00       0.00       0.00       0.00       0.00       0.00        0.00     0.00   0.000
  S74a                       0.00       0.00       0.00       0.00       0.00       0.00       0.00        0.00     0.00   0.000
  S74Aa                      0.00       0.00       0.00       0.00       0.00       0.00       0.00        0.00     0.00   0.000
  S75b                       0.00       0.00       0.00       0.00       0.00       0.00       0.00        0.00     0.00   0.000
  S75c                       0.00       0.00       0.00       0.00       0.00       0.00       0.00        0.00     0.00   0.000
  S75d                       0.00       0.00       0.00       0.00       0.00       0.00       0.00        0.00     0.00   0.000
  S77a                       0.00       0.00       0.00       0.00       0.00       0.00       0.00        0.00     0.00   0.000
  S77b                       0.00       0.00       0.00       0.00       0.00       0.00       0.00        0.00     0.00   0.000
  S79a                       0.00       0.00       0.00       0.00       0.00       0.00       0.00        0.00     0.00   0.000
  S79b                       0.00       0.00       0.00       0.00       0.00       0.00       0.00        0.00     0.00   0.000
  S7a                        0.00       0.00       0.00       0.00       0.00       0.00       0.00        0.00     0.00   0.000
  S80a                       0.00       0.00       0.00       0.00       0.00       0.00       0.00        0.00     0.00   0.000
  S80Aa                      0.00       0.00       0.00       0.00       0.00       0.00       0.00        0.00     0.00   0.000
  S80Ab                      0.00       0.00       0.00       0.00       0.00       0.00       0.00        0.00     0.00   0.000
  S81a                       0.00       0.00       0.00       0.00       0.00       0.00       0.00        0.00     0.00   0.000
  S82a1                      0.00       0.00       0.00       0.00       0.00       0.00       0.00        0.00     0.00   0.000
  S82a2                      0.00       0.00       0.00       0.00       0.00       0.00       0.00        0.00     0.00   0.000
  S83a                       0.00       0.00       0.00       0.00       0.00       0.00       0.00        0.00     0.00   0.000
  S83b                       0.00       0.00       0.00       0.00       0.00       0.00       0.00        0.00     0.00   0.000
  S83c                       0.00       0.00       0.00       0.00       0.00       0.00       0.00        0.00     0.00   0.000
  S83X                       0.00       0.00       0.00       0.00       0.00       0.00       0.00        0.00     0.00   0.000
  S8a                        0.00       0.00       0.00       0.00       0.00       0.00       0.00        0.00     0.00   0.000
  S8b                        0.00       0.00       0.00       0.00       0.00       0.00       0.00        0.00     0.00   0.000
  S9a                        0.00       0.00       0.00       0.00       0.00       0.00       0.00        0.00     0.00   0.000
  S9b                        0.00       0.00       0.00       0.00       0.00       0.00       0.00        0.00     0.00   0.000
  S9c                        0.00       0.00       0.00       0.00       0.00       0.00       0.00        0.00     0.00   0.000
  S9d                        0.00       0.00       0.00       0.00       0.00       0.00       0.00        0.00     0.00   0.000
  S9e                        0.00       0.00       0.00       0.00       0.00       0.00       0.00        0.00     0.00   0.000
  S9f                        0.00       0.00       0.00       0.00       0.00       0.00       0.00        0.00     0.00   0.000
  S9g                        0.00       0.00       0.00       0.00       0.00       0.00       0.00        0.00     0.00   0.000
  SN06a                      0.00       0.00       0.00       0.00       0.00       0.00       0.00        0.00     0.00   0.000
  SN06b                      0.00       0.00       0.00       0.00       0.00       0.00       0.00        0.00     0.00   0.000
  SN06c                      0.00       0.00       0.00       0.00       0.00       0.00       0.00        0.00     0.00   0.000
  SN06d                      0.00       0.00       0.00       0.00       0.00       0.00       0.00        0.00     0.00   0.000
  SN06e                      0.00       0.00       0.00       0.00       0.00       0.00       0.00        0.00     0.00   0.000
  SN06f                      0.00       0.00       0.00       0.00       0.00       0.00       0.00        0.00     0.00   0.000
  SN100a                     0.00       0.00       0.00       0.00       0.00       0.00       0.00        0.00     0.00   0.000
  SN100b                     0.00       0.00       0.00       0.00       0.00       0.00       0.00        0.00     0.00   0.000
  SN100c                     0.00       0.00       0.00       0.00       0.00       0.00       0.00        0.00     0.00   0.000
  SN100d                     0.00       0.00       0.00       0.00       0.00       0.00       0.00        0.00     0.00   0.000
  SN100e                     0.00       0.00       0.00       0.00       0.00       0.00       0.00        0.00     0.00   0.000
  SN101a                     0.00       0.00       0.00       0.00       0.00       0.00       0.00        0.00     0.00   0.000
  SN102a                     0.00       0.00       0.00       0.00       0.00       0.00       0.00        0.00     0.00   0.000
  SN103a                     0.00       0.00       0.00       0.00       0.00       0.00       0.00        0.00     0.00   0.000
  SO1a                       0.00       0.00       0.00       0.00       0.00       0.00       0.00        0.00     0.00   0.000
  SO1b                       0.00       0.00       0.00       0.00       0.00       0.00       0.00        0.00     0.00   0.000
  SO1c                       0.00       0.00       0.00       0.00       0.00       0.00       0.00        0.00     0.00   0.000
  SO1d                       0.00       0.00       0.00       0.00       0.00       0.00       0.00        0.00     0.00   0.000
  SO1e                       0.00       0.00       0.00       0.00       0.00       0.00       0.00        0.00     0.00   0.000
  SO2b                       0.00       0.00       0.00       0.00       0.00       0.00       0.00        0.00     0.00   0.000
  SO3a                       0.00       0.00       0.00       0.00       0.00       0.00       0.00        0.00     0.00   0.000
  SO3b                       0.00       0.00       0.00       0.00       0.00       0.00       0.00        0.00     0.00   0.000
  SO3c                       0.00       0.00       0.00       0.00       0.00       0.00       0.00        0.00     0.00   0.000
  SO5a                       0.00       0.00       0.00       0.00       0.00       0.00       0.00        0.00     0.00   0.000
  SO5b                       0.00       0.00       0.00       0.00       0.00       0.00       0.00        0.00     0.00   0.000
  SO5c                       0.00       0.00       0.00       0.00       0.00       0.00       0.00        0.00     0.00   0.000
  SO5e                       0.00       0.00       0.00       0.00       0.00       0.00       0.00        0.00     0.00   0.000
  SO6a1                      0.00       0.00       0.00       0.00       0.00       0.00       0.00        0.00     0.00   0.000
  SO6a2                      0.00       0.00       0.00       0.00       0.00       0.00       0.00        0.00     0.00   0.000
  SO6b                       0.00       0.00       0.00       0.00       0.00       0.00       0.00        0.00     0.00   0.000
  SO7a                       0.00       0.00       0.00       0.00       0.00       0.00       0.00        0.00     0.00   0.000
  SO8a                       0.00       0.00       0.00       0.00       0.00       0.00       0.00        0.00     0.00   0.000
  SO8b                       0.00       0.00       0.00       0.00       0.00       0.00       0.00        0.00     0.00   0.000
  SO8e                       0.00       0.00       0.00       0.00       0.00       0.00       0.00        0.00     0.00   0.000
  SO8f1                      0.00       0.00       0.00       0.00       0.00       0.00       0.00        0.00     0.00   0.000
  SO8f2                      0.00       0.00       0.00       0.00       0.00       0.00       0.00        0.00     0.00   0.000
  SO8g                       0.00       0.00       0.00       0.00       0.00       0.00       0.00        0.00     0.00   0.000
  SO8h                       0.00       0.00       0.00       0.00       0.00       0.00       0.00        0.00     0.00   0.000
  SOintc                     0.00       0.00       0.00       0.00       0.00       0.00       0.00        0.00     0.00   0.000
  SOinte                     0.00       0.00       0.00       0.00       0.00       0.00       0.00        0.00     0.00   0.000
  SOintg                     0.00       0.00       0.00       0.00       0.00       0.00       0.00        0.00     0.00   0.000
  SOinth                     0.00       0.00       0.00       0.00       0.00       0.00       0.00        0.00     0.00   0.000
  SOinti                     0.00       0.00       0.00       0.00       0.00       0.00       0.00        0.00     0.00   0.000
  SOintl                     0.00       0.00       0.00       0.00       0.00       0.00       0.00        0.00     0.00   0.000
  SS11a                      0.00       0.00       0.00       0.00       0.00       0.00       0.00        0.00     0.00   0.000
  SS11b                      0.00       0.00       0.00       0.00       0.00       0.00       0.00        0.00     0.00   0.000
  SS15a                      0.00       0.00       0.00       0.00       0.00       0.00       0.00        0.00     0.00   0.000
  SS15b                      0.00       0.00       0.00       0.00       0.00       0.00       0.00        0.00     0.00   0.000
  SS16a                      0.00       0.00       0.00       0.00       0.00       0.00       0.00        0.00     0.00   0.000
  SS16b                      0.00       0.00       0.00       0.00       0.00       0.00       0.00        0.00     0.00   0.000
  SS16c                      0.00       0.00       0.00       0.00       0.00       0.00       0.00        0.00     0.00   0.000
  SS1a                       0.00       0.00       0.00       0.00       0.00       0.00       0.00        0.00     0.00   0.000
  SS24a                      0.00       0.00       0.00       0.00       0.00       0.00       0.00        0.00     0.00   0.000
  SS3a                       0.00       0.00       0.00       0.00       0.00       0.00       0.00        0.00     0.00   0.000
  SS4a                       0.00       0.00       0.00       0.00       0.00       0.00       0.00        0.00     0.00   0.000
  SS6a                       0.00       0.00       0.00       0.00       0.00       0.00       0.00        0.00     0.00   0.000
  SS7a                       0.00       0.00       0.00       0.00       0.00       0.00       0.00        0.00     0.00   0.000
  SS7b                       0.00       0.00       0.00       0.00       0.00       0.00       0.00        0.00     0.00   0.000
  SS9a                       0.00       0.00       0.00       0.00       0.00       0.00       0.00        0.00     0.00   0.000
  SS9b                       0.00       0.00       0.00       0.00       0.00       0.00       0.00        0.00     0.00   0.000
  STM11                      0.00       0.00       0.00       0.00       0.00       0.00       0.00        0.00     0.00   0.000
  STM21a                     0.00       0.00       0.00       0.00       0.00       0.00       0.00        0.00     0.00   0.000
  STM21b                     0.00       0.00       0.00       0.00       0.00       0.00       0.00        0.00     0.00   0.000
  STM24                      0.00       0.00       0.00       0.00       0.00       0.00       0.00        0.00     0.00   0.000
  STM25                      0.00       0.00       0.00       0.00       0.00       0.00       0.00        0.00     0.00   0.000
  

  Analysis begun on:  Sat Nov 30 08:10:36 2019
  Analysis ended on:  Sat Nov 30 08:10:36 2019
  Total elapsed time: < 1 sec