
  EPA STORM WATER MANAGEMENT MODEL - VERSION 5.1 (Build 5.1.013)
  --------------------------------------------------------------

  WARNING 02: maximum depth increased for Node S_862
  
  *********************************************************
  NOTE: The summary statistics displayed in this report are
  based on results found at every computational time step,  
  not just on results from each reporting time step.
  *********************************************************
  
  ****************
  Analysis Options
  ****************
  Flow Units ............... CMS
  Process Models:
    Rainfall/Runoff ........ YES
    RDII ................... NO
    Snowmelt ............... NO
    Groundwater ............ NO
    Flow Routing ........... YES
    Ponding Allowed ........ YES
    Water Quality .......... NO
  Infiltration Method ...... HORTON
  Flow Routing Method ...... DYNWAVE
  Surcharge Method ......... EXTRAN
  Starting Date ............ 09/21/1978 00:00:00
  Ending Date .............. 09/21/1978 00:15:00
  Antecedent Dry Days ...... 0.0
  Report Time Step ......... 00:05:00
  Wet Time Step ............ 00:15:00
  Dry Time Step ............ 01:00:00
  Routing Time Step ........ 300.00 sec
  Variable Time Step ....... YES
  Maximum Trials ........... 8
  Number of Threads ........ 1
  Head Tolerance ........... 0.001524 m
  
  
  **************************        Volume         Depth
  Runoff Quantity Continuity     hectare-m            mm
  **************************     ---------       -------
  Total Precipitation ......         0.000         0.000
  Evaporation Loss .........         0.000         0.000
  Infiltration Loss ........         0.000         0.000
  Surface Runoff ...........         0.000         0.000
  Final Storage ............         0.000         0.000
  Continuity Error (%) .....         0.000
  
  
  **************************        Volume        Volume
  Flow Routing Continuity        hectare-m      10^6 ltr
  **************************     ---------     ---------
  Dry Weather Inflow .......         1.078        10.781
  Wet Weather Inflow .......         0.000         0.000
  Groundwater Inflow .......         0.000         0.000
  RDII Inflow ..............         0.000         0.000
  External Inflow ..........         0.000         0.000
  External Outflow .........         0.007         0.070
  Flooding Loss ............         0.000         0.000
  Evaporation Loss .........         0.000         0.000
  Exfiltration Loss ........         0.000         0.000
  Initial Stored Volume ....        19.701       197.017
  Final Stored Volume ......        20.830       208.302
  Continuity Error (%) .....        -0.276
  
  
  *************************
  Highest Continuity Errors
  *************************
  Node J_101 (100.00%)
  Node J_1017 (100.00%)
  Node J_103 (100.00%)
  Node J_1086 (100.00%)
  Node J_110 (100.00%)
  
  
  ***************************
  Time-Step Critical Elements
  ***************************
  Link C_2274 (54.79%)
  Link C_1257 (28.77%)
  Link C_943 (4.11%)
  Link C_628 (2.74%)
  Link C_497 (1.37%)
  
  
  ********************************
  Highest Flow Instability Indexes
  ********************************
  Link LS2A (11)
  Link LS2B (11)
  Link C_1639 (6)
  Link C_1902 (6)
  Link C_1361 (4)
  
  
  *************************
  Routing Time Step Summary
  *************************
  Minimum Time Step           :     9.25 sec
  Average Time Step           :     8.26 sec
  Maximum Time Step           :    13.50 sec
  Percent in Steady State     :    33.04
  Average Iterations per Step :     1.52
  Percent Not Converging      :     1.37
  
  
  ***************************
  Subcatchment Runoff Summary
  ***************************
  
  ------------------------------------------------------------------------------------------------------------------------------
                            Total      Total      Total      Total     Imperv       Perv      Total       Total     Peak  Runoff
                           Precip      Runon       Evap      Infil     Runoff     Runoff     Runoff      Runoff   Runoff   Coeff
  Subcatchment                 mm         mm         mm         mm         mm         mm         mm    10^6 ltr      CMS
  ------------------------------------------------------------------------------------------------------------------------------
  SC_1                       0.00       0.00       0.00       0.00       0.00       0.00       0.00        0.00     0.00   0.000
  SC_10                      0.00       0.00       0.00       0.00       0.00       0.00       0.00        0.00     0.00   0.000
  SC_100                     0.00       0.00       0.00       0.00       0.00       0.00       0.00        0.00     0.00   0.000
  SC_101                     0.00       0.00       0.00       0.00       0.00       0.00       0.00        0.00     0.00   0.000
  SC_102                     0.00       0.00       0.00       0.00       0.00       0.00       0.00        0.00     0.00   0.000
  SC_103                     0.00       0.00       0.00       0.00       0.00       0.00       0.00        0.00     0.00   0.000
  SC_104                     0.00       0.00       0.00       0.00       0.00       0.00       0.00        0.00     0.00   0.000
  SC_105                     0.00       0.00       0.00       0.00       0.00       0.00       0.00        0.00     0.00   0.000
  SC_106                     0.00       0.00       0.00       0.00       0.00       0.00       0.00        0.00     0.00   0.000
  SC_107                     0.00       0.00       0.00       0.00       0.00       0.00       0.00        0.00     0.00   0.000
  SC_108                     0.00       0.00       0.00       0.00       0.00       0.00       0.00        0.00     0.00   0.000
  SC_109                     0.00       0.00       0.00       0.00       0.00       0.00       0.00        0.00     0.00   0.000
  SC_11                      0.00       0.00       0.00       0.00       0.00       0.00       0.00        0.00     0.00   0.000
  SC_110                     0.00       0.00       0.00       0.00       0.00       0.00       0.00        0.00     0.00   0.000
  SC_111                     0.00       0.00       0.00       0.00       0.00       0.00       0.00        0.00     0.00   0.000
  SC_112                     0.00       0.00       0.00       0.00       0.00       0.00       0.00        0.00     0.00   0.000
  SC_113                     0.00       0.00       0.00       0.00       0.00       0.00       0.00        0.00     0.00   0.000
  SC_114                     0.00       0.00       0.00       0.00       0.00       0.00       0.00        0.00     0.00   0.000
  SC_115                     0.00       0.00       0.00       0.00       0.00       0.00       0.00        0.00     0.00   0.000
  SC_116                     0.00       0.00       0.00       0.00       0.00       0.00       0.00        0.00     0.00   0.000
  SC_117                     0.00       0.00       0.00       0.00       0.00       0.00       0.00        0.00     0.00   0.000
  SC_118                     0.00       0.00       0.00       0.00       0.00       0.00       0.00        0.00     0.00   0.000
  SC_119                     0.00       0.00       0.00       0.00       0.00       0.00       0.00        0.00     0.00   0.000
  SC_12                      0.00       0.00       0.00       0.00       0.00       0.00       0.00        0.00     0.00   0.000
  SC_120                     0.00       0.00       0.00       0.00       0.00       0.00       0.00        0.00     0.00   0.000
  SC_121                     0.00       0.00       0.00       0.00       0.00       0.00       0.00        0.00     0.00   0.000
  SC_122                     0.00       0.00       0.00       0.00       0.00       0.00       0.00        0.00     0.00   0.000
  SC_123                     0.00       0.00       0.00       0.00       0.00       0.00       0.00        0.00     0.00   0.000
  SC_124                     0.00       0.00       0.00       0.00       0.00       0.00       0.00        0.00     0.00   0.000
  SC_125                     0.00       0.00       0.00       0.00       0.00       0.00       0.00        0.00     0.00   0.000
  SC_126                     0.00       0.00       0.00       0.00       0.00       0.00       0.00        0.00     0.00   0.000
  SC_127                     0.00       0.00       0.00       0.00       0.00       0.00       0.00        0.00     0.00   0.000
  SC_128                     0.00       0.00       0.00       0.00       0.00       0.00       0.00        0.00     0.00   0.000
  SC_129                     0.00       0.00       0.00       0.00       0.00       0.00       0.00        0.00     0.00   0.000
  SC_13                      0.00       0.00       0.00       0.00       0.00       0.00       0.00        0.00     0.00   0.000
  SC_130                     0.00       0.00       0.00       0.00       0.00       0.00       0.00        0.00     0.00   0.000
  SC_131                     0.00       0.00       0.00       0.00       0.00       0.00       0.00        0.00     0.00   0.000
  SC_132                     0.00       0.00       0.00       0.00       0.00       0.00       0.00        0.00     0.00   0.000
  SC_133                     0.00       0.00       0.00       0.00       0.00       0.00       0.00        0.00     0.00   0.000
  SC_134                     0.00       0.00       0.00       0.00       0.00       0.00       0.00        0.00     0.00   0.000
  SC_135                     0.00       0.00       0.00       0.00       0.00       0.00       0.00        0.00     0.00   0.000
  SC_136                     0.00       0.00       0.00       0.00       0.00       0.00       0.00        0.00     0.00   0.000
  SC_137                     0.00       0.00       0.00       0.00       0.00       0.00       0.00        0.00     0.00   0.000
  SC_138                     0.00       0.00       0.00       0.00       0.00       0.00       0.00        0.00     0.00   0.000
  SC_139                     0.00       0.00       0.00       0.00       0.00       0.00       0.00        0.00     0.00   0.000
  SC_14                      0.00       0.00       0.00       0.00       0.00       0.00       0.00        0.00     0.00   0.000
  SC_140                     0.00       0.00       0.00       0.00       0.00       0.00       0.00        0.00     0.00   0.000
  SC_141                     0.00       0.00       0.00       0.00       0.00       0.00       0.00        0.00     0.00   0.000
  SC_15                      0.00       0.00       0.00       0.00       0.00       0.00       0.00        0.00     0.00   0.000
  SC_16                      0.00       0.00       0.00       0.00       0.00       0.00       0.00        0.00     0.00   0.000
  SC_17                      0.00       0.00       0.00       0.00       0.00       0.00       0.00        0.00     0.00   0.000
  SC_18                      0.00       0.00       0.00       0.00       0.00       0.00       0.00        0.00     0.00   0.000
  SC_19                      0.00       0.00       0.00       0.00       0.00       0.00       0.00        0.00     0.00   0.000
  SC_2                       0.00       0.00       0.00       0.00       0.00       0.00       0.00        0.00     0.00   0.000
  SC_20                      0.00       0.00       0.00       0.00       0.00       0.00       0.00        0.00     0.00   0.000
  SC_21                      0.00       0.00       0.00       0.00       0.00       0.00       0.00        0.00     0.00   0.000
  SC_22                      0.00       0.00       0.00       0.00       0.00       0.00       0.00        0.00     0.00   0.000
  SC_23                      0.00       0.00       0.00       0.00       0.00       0.00       0.00        0.00     0.00   0.000
  SC_24                      0.00       0.00       0.00       0.00       0.00       0.00       0.00        0.00     0.00   0.000
  SC_25                      0.00       0.00       0.00       0.00       0.00       0.00       0.00        0.00     0.00   0.000
  SC_26                      0.00       0.00       0.00       0.00       0.00       0.00       0.00        0.00     0.00   0.000
  SC_27                      0.00       0.00       0.00       0.00       0.00       0.00       0.00        0.00     0.00   0.000
  SC_28                      0.00       0.00       0.00       0.00       0.00       0.00       0.00        0.00     0.00   0.000
  SC_29                      0.00       0.00       0.00       0.00       0.00       0.00       0.00        0.00     0.00   0.000
  SC_3                       0.00       0.00       0.00       0.00       0.00       0.00       0.00        0.00     0.00   0.000
  SC_30                      0.00       0.00       0.00       0.00       0.00       0.00       0.00        0.00     0.00   0.000
  SC_31                      0.00       0.00       0.00       0.00       0.00       0.00       0.00        0.00     0.00   0.000
  SC_32                      0.00       0.00       0.00       0.00       0.00       0.00       0.00        0.00     0.00   0.000
  SC_33                      0.00       0.00       0.00       0.00       0.00       0.00       0.00        0.00     0.00   0.000
  SC_34                      0.00       0.00       0.00       0.00       0.00       0.00       0.00        0.00     0.00   0.000
  SC_35                      0.00       0.00       0.00       0.00       0.00       0.00       0.00        0.00     0.00   0.000
  SC_36                      0.00       0.00       0.00       0.00       0.00       0.00       0.00        0.00     0.00   0.000
  SC_37                      0.00       0.00       0.00       0.00       0.00       0.00       0.00        0.00     0.00   0.000
  SC_38                      0.00       0.00       0.00       0.00       0.00       0.00       0.00        0.00     0.00   0.000
  SC_39                      0.00       0.00       0.00       0.00       0.00       0.00       0.00        0.00     0.00   0.000
  SC_4                       0.00       0.00       0.00       0.00       0.00       0.00       0.00        0.00     0.00   0.000
  SC_40                      0.00       0.00       0.00       0.00       0.00       0.00       0.00        0.00     0.00   0.000
  SC_41                      0.00       0.00       0.00       0.00       0.00       0.00       0.00        0.00     0.00   0.000
  SC_42                      0.00       0.00       0.00       0.00       0.00       0.00       0.00        0.00     0.00   0.000
  SC_43                      0.00       0.00       0.00       0.00       0.00       0.00       0.00        0.00     0.00   0.000
  SC_44                      0.00       0.00       0.00       0.00       0.00       0.00       0.00        0.00     0.00   0.000
  SC_45                      0.00       0.00       0.00       0.00       0.00       0.00       0.00        0.00     0.00   0.000
  SC_46                      0.00       0.00       0.00       0.00       0.00       0.00       0.00        0.00     0.00   0.000
  SC_47                      0.00       0.00       0.00       0.00       0.00       0.00       0.00        0.00     0.00   0.000
  SC_48                      0.00       0.00       0.00       0.00       0.00       0.00       0.00        0.00     0.00   0.000
  SC_49                      0.00       0.00       0.00       0.00       0.00       0.00       0.00        0.00     0.00   0.000
  SC_5                       0.00       0.00       0.00       0.00       0.00       0.00       0.00        0.00     0.00   0.000
  SC_50                      0.00       0.00       0.00       0.00       0.00       0.00       0.00        0.00     0.00   0.000
  SC_51                      0.00       0.00       0.00       0.00       0.00       0.00       0.00        0.00     0.00   0.000
  SC_52                      0.00       0.00       0.00       0.00       0.00       0.00       0.00        0.00     0.00   0.000
  SC_53                      0.00       0.00       0.00       0.00       0.00       0.00       0.00        0.00     0.00   0.000
  SC_54                      0.00       0.00       0.00       0.00       0.00       0.00       0.00        0.00     0.00   0.000
  SC_55                      0.00       0.00       0.00       0.00       0.00       0.00       0.00        0.00     0.00   0.000
  SC_56                      0.00       0.00       0.00       0.00       0.00       0.00       0.00        0.00     0.00   0.000
  SC_57                      0.00       0.00       0.00       0.00       0.00       0.00       0.00        0.00     0.00   0.000
  SC_58                      0.00       0.00       0.00       0.00       0.00       0.00       0.00        0.00     0.00   0.000
  SC_59                      0.00       0.00       0.00       0.00       0.00       0.00       0.00        0.00     0.00   0.000
  SC_6                       0.00       0.00       0.00       0.00       0.00       0.00       0.00        0.00     0.00   0.000
  SC_60                      0.00       0.00       0.00       0.00       0.00       0.00       0.00        0.00     0.00   0.000
  SC_61                      0.00       0.00       0.00       0.00       0.00       0.00       0.00        0.00     0.00   0.000
  SC_62                      0.00       0.00       0.00       0.00       0.00       0.00       0.00        0.00     0.00   0.000
  SC_63                      0.00       0.00       0.00       0.00       0.00       0.00       0.00        0.00     0.00   0.000
  SC_64                      0.00       0.00       0.00       0.00       0.00       0.00       0.00        0.00     0.00   0.000
  SC_65                      0.00       0.00       0.00       0.00       0.00       0.00       0.00        0.00     0.00   0.000
  SC_66                      0.00       0.00       0.00       0.00       0.00       0.00       0.00        0.00     0.00   0.000
  SC_67                      0.00       0.00       0.00       0.00       0.00       0.00       0.00        0.00     0.00   0.000
  SC_68                      0.00       0.00       0.00       0.00       0.00       0.00       0.00        0.00     0.00   0.000
  SC_69                      0.00       0.00       0.00       0.00       0.00       0.00       0.00        0.00     0.00   0.000
  SC_7                       0.00       0.00       0.00       0.00       0.00       0.00       0.00        0.00     0.00   0.000
  SC_70                      0.00       0.00       0.00       0.00       0.00       0.00       0.00        0.00     0.00   0.000
  SC_71                      0.00       0.00       0.00       0.00       0.00       0.00       0.00        0.00     0.00   0.000
  SC_72                      0.00       0.00       0.00       0.00       0.00       0.00       0.00        0.00     0.00   0.000
  SC_73                      0.00       0.00       0.00       0.00       0.00       0.00       0.00        0.00     0.00   0.000
  SC_74                      0.00       0.00       0.00       0.00       0.00       0.00       0.00        0.00     0.00   0.000
  SC_75                      0.00       0.00       0.00       0.00       0.00       0.00       0.00        0.00     0.00   0.000
  SC_76                      0.00       0.00       0.00       0.00       0.00       0.00       0.00        0.00     0.00   0.000
  SC_77                      0.00       0.00       0.00       0.00       0.00       0.00       0.00        0.00     0.00   0.000
  SC_78                      0.00       0.00       0.00       0.00       0.00       0.00       0.00        0.00     0.00   0.000
  SC_79                      0.00       0.00       0.00       0.00       0.00       0.00       0.00        0.00     0.00   0.000
  SC_8                       0.00       0.00       0.00       0.00       0.00       0.00       0.00        0.00     0.00   0.000
  SC_80                      0.00       0.00       0.00       0.00       0.00       0.00       0.00        0.00     0.00   0.000
  SC_81                      0.00       0.00       0.00       0.00       0.00       0.00       0.00        0.00     0.00   0.000
  SC_82                      0.00       0.00       0.00       0.00       0.00       0.00       0.00        0.00     0.00   0.000
  SC_83                      0.00       0.00       0.00       0.00       0.00       0.00       0.00        0.00     0.00   0.000
  SC_84                      0.00       0.00       0.00       0.00       0.00       0.00       0.00        0.00     0.00   0.000
  SC_85                      0.00       0.00       0.00       0.00       0.00       0.00       0.00        0.00     0.00   0.000
  SC_86                      0.00       0.00       0.00       0.00       0.00       0.00       0.00        0.00     0.00   0.000
  SC_87                      0.00       0.00       0.00       0.00       0.00       0.00       0.00        0.00     0.00   0.000
  SC_88                      0.00       0.00       0.00       0.00       0.00       0.00       0.00        0.00     0.00   0.000
  SC_89                      0.00       0.00       0.00       0.00       0.00       0.00       0.00        0.00     0.00   0.000
  SC_9                       0.00       0.00       0.00       0.00       0.00       0.00       0.00        0.00     0.00   0.000
  SC_90                      0.00       0.00       0.00       0.00       0.00       0.00       0.00        0.00     0.00   0.000
  SC_91                      0.00       0.00       0.00       0.00       0.00       0.00       0.00        0.00     0.00   0.000
  SC_92                      0.00       0.00       0.00       0.00       0.00       0.00       0.00        0.00     0.00   0.000
  SC_93                      0.00       0.00       0.00       0.00       0.00       0.00       0.00        0.00     0.00   0.000
  SC_94                      0.00       0.00       0.00       0.00       0.00       0.00       0.00        0.00     0.00   0.000
  SC_95                      0.00       0.00       0.00       0.00       0.00       0.00       0.00        0.00     0.00   0.000
  SC_96                      0.00       0.00       0.00       0.00       0.00       0.00       0.00        0.00     0.00   0.000
  SC_97                      0.00       0.00       0.00       0.00       0.00       0.00       0.00        0.00     0.00   0.000
  SC_98                      0.00       0.00       0.00       0.00       0.00       0.00       0.00        0.00     0.00   0.000
  SC_99                      0.00       0.00       0.00       0.00       0.00       0.00       0.00        0.00     0.00   0.000
  
  
  ******************
  Node Depth Summary
  ******************
  
  ---------------------------------------------------------------------------------
                                 Average  Maximum  Maximum  Time of Max    Reported
                                   Depth    Depth      HGL   Occurrence   Max Depth
  Node                 Type       Meters   Meters   Meters  days hr:min      Meters
  ---------------------------------------------------------------------------------
  J_1                  JUNCTION     0.00     0.00     0.85     0  00:15        0.00
  J_10                 JUNCTION     0.01     0.03     2.28     0  00:15        0.03
  J_100                JUNCTION     0.04     0.08    -1.58     0  00:15        0.08
  J_1000               JUNCTION     0.00     0.01     2.01     0  00:15        0.01
  J_1001               JUNCTION     0.00     0.00     1.12     0  00:15        0.00
  J_1002               JUNCTION     0.02     0.06     1.95     0  00:15        0.06
  J_1003               JUNCTION     0.02     0.04     1.98     0  00:15        0.04
  J_1004               JUNCTION     0.04     0.07     1.99     0  00:15        0.07
  J_1005               JUNCTION     0.02     0.05     1.84     0  00:15        0.05
  J_1006               JUNCTION     0.05     0.10     1.98     0  00:15        0.10
  J_1007               JUNCTION     0.02     0.05     1.84     0  00:15        0.05
  J_1008               JUNCTION     0.03     0.08    -0.92     0  00:15        0.08
  J_1009               JUNCTION     0.05     0.10    -1.00     0  00:15        0.10
  J_101                JUNCTION     0.01     0.03    -1.66     0  00:15        0.03
  J_1010               JUNCTION     0.01     0.03     1.81     0  00:15        0.03
  J_1011               JUNCTION     0.03     0.05    -1.15     0  00:15        0.05
  J_1012               JUNCTION     0.06     0.11    -1.19     0  00:15        0.11
  J_1013               JUNCTION     0.02     0.06     1.85     0  00:15        0.06
  J_1014               JUNCTION     0.00     0.00    -1.60     0  00:15        0.00
  J_1015               JUNCTION     0.10     0.20     2.43     0  00:15        0.20
  J_1016               JUNCTION     0.02     0.03     1.82     0  00:15        0.03
  J_1017               JUNCTION     0.01     0.04     0.99     0  00:15        0.04
  J_1018               JUNCTION     0.05     0.11     1.16     0  00:15        0.11
  J_1019               JUNCTION     0.03     0.06     1.85     0  00:15        0.06
  J_102                JUNCTION     0.03     0.08     1.83     0  00:15        0.08
  J_1020               JUNCTION     0.03     0.07     1.86     0  00:15        0.07
  J_1021               JUNCTION     0.05     0.11     1.89     0  00:15        0.11
  J_1022               JUNCTION     0.10     0.18     1.97     0  00:15        0.18
  J_1023               JUNCTION     0.06     0.14    -0.86     0  00:15        0.14
  J_1024               JUNCTION     0.10     0.18    -0.92     0  00:15        0.18
  J_1025               JUNCTION     0.08     0.17    -1.03     0  00:15        0.17
  J_1026               JUNCTION     0.04     0.08     3.76     0  00:15        0.08
  J_1027               JUNCTION     0.00     0.00    -1.55     0  00:00        0.00
  J_1029               JUNCTION     0.05     0.09     1.87     0  00:15        0.09
  J_103                JUNCTION     0.00     0.00     1.10     0  00:15        0.00
  J_1030               JUNCTION     0.02     0.05     1.83     0  00:15        0.05
  J_1031               JUNCTION     0.13     0.28     2.14     0  00:15        0.28
  J_1032               JUNCTION     0.01     0.02     1.79     0  00:15        0.02
  J_1033               JUNCTION     0.00     0.00    -1.10     0  00:15        0.00
  J_1034               JUNCTION     0.08     0.16    -0.59     0  00:15        0.16
  J_1035               JUNCTION     0.05     0.10     1.85     0  00:15        0.10
  J_1036               JUNCTION     0.04     0.09    -0.91     0  00:15        0.09
  J_1037               JUNCTION     0.05     0.09    -1.21     0  00:15        0.09
  J_1038               JUNCTION     0.01     0.02     1.99     0  00:15        0.02
  J_1039               JUNCTION     0.09     0.18    -1.12     0  00:15        0.18
  J_104                JUNCTION     0.06     0.12    -1.55     0  00:15        0.12
  J_1040               JUNCTION     0.01     0.01     1.76     0  00:15        0.01
  J_1041               JUNCTION     0.04     0.06     1.06     0  00:15        0.06
  J_1042               JUNCTION     0.02     0.04     1.79     0  00:15        0.04
  J_1043               JUNCTION     0.04     0.07    -1.38     0  00:15        0.07
  J_1044               JUNCTION     0.04     0.07     1.39     0  00:15        0.07
  J_1045               JUNCTION     0.06     0.12     1.87     0  00:15        0.12
  J_1046               JUNCTION     0.04     0.09    -1.51     0  00:15        0.09
  J_1047               JUNCTION     0.04     0.08    -1.62     0  00:15        0.08
  J_1048               JUNCTION     0.00     0.00    -0.80     0  00:15        0.00
  J_1049               JUNCTION     0.00     0.00     1.00     0  00:15        0.00
  J_105                JUNCTION     0.00     0.01     1.75     0  00:15        0.01
  J_1050               JUNCTION     0.05     0.09     1.44     0  00:15        0.09
  J_1051               JUNCTION     0.05     0.09     1.46     0  00:15        0.09
  J_1052               JUNCTION     0.00     0.00    -1.00     0  00:15        0.00
  J_1053               JUNCTION     0.01     0.03     1.78     0  00:15        0.03
  J_1054               JUNCTION     0.01     0.02     2.16     0  00:15        0.02
  J_1055               JUNCTION     0.05     0.08     2.75     0  00:15        0.08
  J_1056               JUNCTION     0.01     0.02     2.83     0  00:15        0.02
  J_1057               JUNCTION     0.05     0.09    -0.76     0  00:15        0.09
  J_1059               JUNCTION     0.03     0.06     1.44     0  00:15        0.06
  J_106                JUNCTION     0.00     0.00     1.75     0  00:15        0.00
  J_1060               JUNCTION     0.04     0.08     2.89     0  00:15        0.08
  J_1061               JUNCTION     0.04     0.07     2.42     0  00:15        0.07
  J_1062               JUNCTION     0.03     0.08     2.90     0  00:15        0.08
  J_1063               JUNCTION     0.02     0.05    -0.82     0  00:15        0.05
  J_1064               JUNCTION     0.02     0.04     2.67     0  00:15        0.04
  J_1065               JUNCTION     0.07     0.12     1.54     0  00:15        0.12
  J_1067               JUNCTION     0.04     0.07     1.52     0  00:15        0.07
  J_1068               JUNCTION     0.04     0.08    -0.78     0  00:15        0.08
  J_1069               JUNCTION     0.07     0.12     2.70     0  00:15        0.12
  J_107                JUNCTION     0.01     0.02     1.76     0  00:15        0.02
  J_1070               JUNCTION     0.06     0.13     1.88     0  00:15        0.13
  J_1071               JUNCTION     0.03     0.06    -0.84     0  00:15        0.06
  J_1072               JUNCTION     0.04     0.08    -0.78     0  00:15        0.08
  J_1073               JUNCTION     0.05     0.11     2.83     0  00:15        0.11
  J_1074               JUNCTION     0.17     0.37     2.13     0  00:15        0.37
  J_1075               JUNCTION     0.01     0.03    -0.88     0  00:15        0.03
  J_1076               JUNCTION     0.02     0.06     2.40     0  00:15        0.06
  J_1077               JUNCTION     0.04     0.07     2.64     0  00:15        0.07
  J_1078               JUNCTION     0.04     0.08     2.80     0  00:15        0.08
  J_1079               JUNCTION     0.03     0.06    -0.87     0  00:15        0.06
  J_108                JUNCTION     0.00     0.01    -1.71     0  00:15        0.01
  J_1080               JUNCTION     0.02     0.03    -0.85     0  00:15        0.03
  J_1081               JUNCTION     0.02     0.04     2.37     0  00:15        0.04
  J_1082               JUNCTION     0.01     0.02     2.27     0  00:15        0.02
  J_1083               JUNCTION     0.04     0.09     2.44     0  00:15        0.09
  J_1084               JUNCTION     0.03     0.06     2.78     0  00:15        0.06
  J_1085               JUNCTION     0.04     0.06    -0.80     0  00:15        0.06
  J_1086               JUNCTION     0.02     0.05    -0.81     0  00:15        0.05
  J_1087               JUNCTION     0.02     0.04     2.67     0  00:15        0.04
  J_1088               JUNCTION     0.02     0.04    -0.83     0  00:15        0.04
  J_1089               JUNCTION     0.01     0.02     2.12     0  00:15        0.02
  J_109                JUNCTION     0.01     0.04     1.79     0  00:15        0.04
  J_1091               JUNCTION     0.06     0.11     2.44     0  00:15        0.11
  J_1092               JUNCTION     0.03     0.07     2.86     0  00:15        0.07
  J_1093               JUNCTION     0.05     0.10     2.83     0  00:15        0.10
  J_1094               JUNCTION     0.01     0.02     2.28     0  00:15        0.02
  J_1095               JUNCTION     0.07     0.12     2.92     0  00:15        0.12
  J_1096               JUNCTION     0.01     0.02     0.87     0  00:05        0.02
  J_1098               JUNCTION     0.02     0.04     2.74     0  00:15        0.04
  J_1099               JUNCTION     0.05     0.10    -0.75     0  00:15        0.10
  J_11                 JUNCTION     0.00     0.00     2.50     0  00:15        0.00
  J_110                JUNCTION     0.00     0.00    -1.60     0  00:15        0.00
  J_1100               JUNCTION     0.02     0.04     2.36     0  00:15        0.04
  J_1101               JUNCTION     0.04     0.08     2.81     0  00:15        0.08
  J_1102               JUNCTION     0.02     0.03    -0.83     0  00:15        0.03
  J_1103               JUNCTION     0.04     0.07     2.48     0  00:15        0.07
  J_1104               JUNCTION     0.01     0.03     1.13     0  00:15        0.03
  J_1105               JUNCTION     0.03     0.05     2.46     0  00:14        0.05
  J_1106               JUNCTION     0.03     0.05    -0.85     0  00:15        0.05
  J_1107               JUNCTION     0.06     0.11     2.49     0  00:15        0.11
  J_1108               JUNCTION     0.01     0.03    -0.86     0  00:15        0.03
  J_1109               JUNCTION     0.00     0.01    -0.87     0  00:15        0.01
  J_111                JUNCTION     0.04     0.09    -1.59     0  00:15        0.09
  J_1110               JUNCTION     0.04     0.08     2.04     0  00:15        0.08
  J_1111               JUNCTION     0.04     0.06     2.44     0  00:13        0.06
  J_1112               JUNCTION     0.03     0.07     2.04     0  00:15        0.07
  J_1113               JUNCTION     0.02     0.03     1.63     0  00:15        0.03
  J_1114               JUNCTION     0.05     0.09    -0.76     0  00:15        0.09
  J_1115               JUNCTION     0.01     0.03     1.32     0  00:15        0.03
  J_1116               JUNCTION     0.01     0.01     2.00     0  00:15        0.01
  J_1117               JUNCTION     0.03     0.04     2.42     0  00:11        0.04
  J_1118               JUNCTION     0.03     0.06     2.02     0  00:15        0.06
  J_1119               JUNCTION     0.01     0.02     2.22     0  00:15        0.02
  J_112                JUNCTION     0.00     0.00     1.76     0  00:15        0.00
  J_1120               JUNCTION     0.02     0.05     2.44     0  00:15        0.05
  J_1121               JUNCTION     0.05     0.10     1.95     0  00:15        0.10
  J_1122               JUNCTION     0.02     0.04     2.00     0  00:15        0.04
  J_1123               JUNCTION     0.03     0.06     2.82     0  00:15        0.06
  J_1124               JUNCTION     0.03     0.06     2.83     0  00:15        0.06
  J_1125               JUNCTION     0.04     0.07     2.75     0  00:15        0.07
  J_1126               JUNCTION     0.03     0.06     2.74     0  00:15        0.06
  J_1127               JUNCTION     0.03     0.07     2.74     0  00:15        0.07
  J_1128               JUNCTION     0.03     0.06     1.90     0  00:15        0.06
  J_1129               JUNCTION     0.03     0.06     2.74     0  00:15        0.06
  J_113                JUNCTION     0.00     0.00     1.30     0  00:15        0.00
  J_1130               JUNCTION     0.08     0.17     4.92     0  00:15        0.17
  J_1131               JUNCTION     0.00     0.01     1.80     0  00:15        0.01
  J_1132               JUNCTION     0.04     0.06     2.73     0  00:12        0.06
  J_1133               JUNCTION     0.03     0.06     2.60     0  00:15        0.06
  J_1134               JUNCTION     0.01     0.03     1.81     0  00:15        0.03
  J_1136               JUNCTION     0.00     0.00    -2.65     0  00:15        0.00
  J_1137               JUNCTION     0.03     0.06     1.91     0  00:15        0.06
  J_1138               JUNCTION     0.02     0.04     2.14     0  00:15        0.04
  J_1139               JUNCTION     0.04     0.07     1.47     0  00:15        0.07
  J_114                JUNCTION     0.02     0.06     1.81     0  00:15        0.06
  J_1140               JUNCTION     0.06     0.13     1.13     0  00:15        0.13
  J_1141               JUNCTION     0.09     0.17     1.17     0  00:15        0.17
  J_1142               JUNCTION     0.04     0.08     1.28     0  00:15        0.08
  J_1143               JUNCTION     0.02     0.04     2.57     0  00:15        0.04
  J_1144               JUNCTION     0.05     0.09     3.45     0  00:15        0.09
  J_1145               JUNCTION     0.02     0.05     3.40     0  00:15        0.05
  J_1146               JUNCTION     0.01     0.02     1.80     0  00:15        0.02
  J_1147               JUNCTION     0.05     0.09     0.84     0  00:15        0.09
  J_1148               JUNCTION     0.01     0.02     1.80     0  00:15        0.02
  J_1149               JUNCTION     0.03     0.06     1.54     0  00:15        0.06
  J_115                JUNCTION     0.01     0.05     1.37     0  00:15        0.05
  J_1150               JUNCTION     0.03     0.06     3.41     0  00:15        0.06
  J_1151               JUNCTION     0.02     0.04     1.03     0  00:15        0.04
  J_1152               JUNCTION     0.04     0.08     1.06     0  00:15        0.08
  J_1153               JUNCTION     0.02     0.03     3.38     0  00:15        0.03
  J_1154               JUNCTION     0.01     0.03     2.22     0  00:15        0.03
  J_1155               JUNCTION     0.09     0.16     1.27     0  00:15        0.16
  J_1156               JUNCTION     0.04     0.07     1.05     0  00:15        0.07
  J_1157               JUNCTION     0.03     0.06     1.41     0  00:15        0.06
  J_1159               JUNCTION     0.04     0.07     1.05     0  00:15        0.07
  J_116                JUNCTION     0.00     0.00    -0.93     0  00:15        0.00
  J_1160               JUNCTION     0.00     0.00     0.75     0  00:15        0.00
  J_1161               JUNCTION     0.00     0.01     1.53     0  00:15        0.01
  J_1162               JUNCTION     0.04     0.07     1.06     0  00:15        0.07
  J_1163               JUNCTION     0.05     0.10     1.35     0  00:15        0.10
  J_1164               JUNCTION     0.04     0.07     1.05     0  00:15        0.07
  J_1165               JUNCTION     0.03     0.06     1.03     0  00:15        0.06
  J_1166               JUNCTION     0.00     0.01     3.56     0  00:15        0.01
  J_1167               JUNCTION     0.03     0.05     1.01     0  00:15        0.05
  J_1168               JUNCTION     0.05     0.10     1.07     0  00:15        0.10
  J_1169               JUNCTION     0.04     0.09     1.09     0  00:15        0.09
  J_117                JUNCTION     0.02     0.05    -0.70     0  00:15        0.05
  J_1170               JUNCTION     0.00     0.00    -1.25     0  00:15        0.00
  J_1171               JUNCTION     0.03     0.06     1.04     0  00:15        0.06
  J_1172               JUNCTION     0.03     0.05     1.04     0  00:15        0.05
  J_1173               JUNCTION     0.15     0.30     1.29     0  00:15        0.30
  J_1174               JUNCTION     0.02     0.04     1.02     0  00:15        0.04
  J_1175               JUNCTION     0.02     0.03     1.01     0  00:15        0.03
  J_1176               JUNCTION     0.09     0.18     1.16     0  00:15        0.18
  J_1178               JUNCTION     0.10     0.16     1.15     0  00:15        0.16
  J_1179               JUNCTION     0.07     0.15     1.27     0  00:15        0.15
  J_118                JUNCTION     0.00     0.00     1.76     0  00:15        0.00
  J_1180               JUNCTION     0.04     0.07     1.05     0  00:15        0.07
  J_1181               JUNCTION     0.03     0.06     1.25     0  00:15        0.06
  J_1182               JUNCTION     0.04     0.08    -1.12     0  00:15        0.08
  J_1183               JUNCTION     0.02     0.04    -1.16     0  00:15        0.04
  J_1184               JUNCTION     0.02     0.04    -1.12     0  00:15        0.04
  J_1185               JUNCTION     0.02     0.03    -1.14     0  00:15        0.03
  J_1186               JUNCTION     0.04     0.08    -1.25     0  00:15        0.08
  J_1187               JUNCTION     0.02     0.03    -1.15     0  00:15        0.03
  J_1188               JUNCTION     0.00     0.00    -1.35     0  00:15        0.00
  J_1189               JUNCTION     0.00     0.01    -1.25     0  00:15        0.01
  J_119                JUNCTION     0.02     0.05     1.37     0  00:15        0.05
  J_1190               JUNCTION     0.06     0.12     1.03     0  00:15        0.12
  J_1191               JUNCTION     0.00     0.00     1.10     0  00:15        0.00
  J_1192               JUNCTION     0.02     0.04     1.19     0  00:15        0.04
  J_1193               JUNCTION     0.09     0.15     1.14     0  00:10        0.15
  J_1194               JUNCTION     0.02     0.05    -1.17     0  00:15        0.05
  J_1195               JUNCTION     0.00     0.00     3.13     0  00:15        0.00
  J_1196               JUNCTION     0.03     0.07    -1.14     0  00:15        0.07
  J_1197               JUNCTION     0.04     0.07    -1.13     0  00:15        0.07
  J_1198               JUNCTION     0.00     0.00     2.95     0  00:00        0.00
  J_1199               JUNCTION     0.05     0.10     2.49     0  00:15        0.10
  J_12                 JUNCTION     0.00     0.00     1.15     0  00:15        0.00
  J_120                JUNCTION     0.00     0.00    -0.96     0  00:15        0.00
  J_1200               JUNCTION     0.01     0.02     1.25     0  00:15        0.02
  J_1201               JUNCTION     0.05     0.10    -1.21     0  00:15        0.10
  J_1203               JUNCTION     0.04     0.07     2.48     0  00:15        0.07
  J_1204               JUNCTION     0.00     0.01    -1.30     0  00:15        0.01
  J_1205               JUNCTION     0.02     0.04    -1.24     0  00:15        0.04
  J_1206               JUNCTION     0.06     0.13     1.11     0  00:15        0.13
  J_1207               JUNCTION     0.05     0.09     0.81     0  00:15        0.09
  J_1208               JUNCTION     0.00     0.00    -1.33     0  00:15        0.00
  J_1209               JUNCTION     0.02     0.04    -1.21     0  00:15        0.04
  J_121                JUNCTION     0.03     0.06     2.80     0  00:15        0.06
  J_1210               JUNCTION     0.03     0.07     1.05     0  00:15        0.07
  J_1211               JUNCTION     0.03     0.05     1.04     0  00:15        0.05
  J_1212               JUNCTION     0.04     0.07     1.05     0  00:15        0.07
  J_1213               JUNCTION     0.01     0.02     1.02     0  00:15        0.02
  J_1214               JUNCTION     0.03     0.05    -1.14     0  00:15        0.05
  J_1216               JUNCTION     0.04     0.07     0.99     0  00:15        0.07
  J_1218               JUNCTION     0.00     0.00     1.85     0  00:15        0.00
  J_1219               JUNCTION     0.02     0.04    -1.15     0  00:15        0.04
  J_122                JUNCTION     0.05     0.09     1.48     0  00:15        0.09
  J_1221               JUNCTION     0.03     0.05    -1.15     0  00:15        0.05
  J_1222               JUNCTION     0.04     0.08     1.06     0  00:15        0.08
  J_1223               JUNCTION     0.00     0.00    -1.35     0  00:15        0.00
  J_1224               JUNCTION     0.04     0.07     0.54     0  00:15        0.07
  J_1225               JUNCTION     0.02     0.04    -1.10     0  00:15        0.04
  J_1226               JUNCTION     0.01     0.02     1.02     0  00:15        0.02
  J_1227               JUNCTION     0.00     0.01    -1.26     0  00:15        0.01
  J_1228               JUNCTION     0.03     0.07     1.27     0  00:15        0.07
  J_1229               JUNCTION     0.04     0.07     1.07     0  00:15        0.07
  J_123                JUNCTION     0.01     0.02     2.16     0  00:15        0.02
  J_1230               JUNCTION     0.00     0.00    -1.27     0  00:15        0.00
  J_1231               JUNCTION     0.03     0.06    -1.18     0  00:15        0.06
  J_1232               JUNCTION     0.01     0.03     1.45     0  00:15        0.03
  J_1233               JUNCTION     0.04     0.09     1.54     0  00:15        0.09
  J_1234               JUNCTION     0.09     0.17     2.67     0  00:15        0.17
  J_1235               JUNCTION     0.09     0.18     1.18     0  00:15        0.18
  J_1236               JUNCTION     0.00     0.00     1.00     0  00:15        0.00
  J_1237               JUNCTION     0.02     0.05     1.27     0  00:15        0.05
  J_1238               JUNCTION     0.08     0.15     1.27     0  00:15        0.15
  J_1239               JUNCTION     0.07     0.13     1.70     0  00:15        0.13
  J_124                JUNCTION     0.01     0.03    -0.82     0  00:15        0.03
  J_1240               JUNCTION     0.09     0.15     1.36     0  00:15        0.15
  J_1241               JUNCTION     0.03     0.07     1.42     0  00:15        0.07
  J_1242               JUNCTION     0.05     0.08     1.40     0  00:15        0.08
  J_1243               JUNCTION     0.12     0.21     1.50     0  00:15        0.21
  J_1244               JUNCTION     0.08     0.19     1.46     0  00:15        0.19
  J_1245               JUNCTION     0.04     0.09     1.34     0  00:15        0.09
  J_1246               JUNCTION     0.07     0.12     1.40     0  00:15        0.12
  J_1247               JUNCTION     0.03     0.07     1.28     0  00:15        0.07
  J_1248               JUNCTION     0.05     0.08     2.50     0  00:09        0.08
  J_1249               JUNCTION     0.04     0.09     1.37     0  00:15        0.09
  J_125                JUNCTION     0.01     0.04     1.41     0  00:15        0.04
  J_1250               JUNCTION     0.02     0.04     2.98     0  00:15        0.04
  J_1251               JUNCTION     0.03     0.06     1.18     0  00:15        0.06
  J_1252               JUNCTION     0.00     0.01     1.51     0  00:15        0.01
  J_1253               JUNCTION     0.05     0.10     1.35     0  00:15        0.10
  J_1254               JUNCTION     0.04     0.07     2.17     0  00:15        0.07
  J_1255               JUNCTION     0.02     0.04     1.16     0  00:15        0.04
  J_1256               JUNCTION     0.03     0.06     1.06     0  00:15        0.06
  J_1257               JUNCTION     0.01     0.04     1.24     0  00:15        0.04
  J_1258               JUNCTION     0.04     0.09     1.29     0  00:15        0.09
  J_1259               JUNCTION     0.04     0.08     1.08     0  00:15        0.08
  J_126                JUNCTION     0.00     0.00    -1.75     0  00:15        0.00
  J_1261               JUNCTION     0.01     0.02     1.16     0  00:14        0.02
  J_1262               JUNCTION     0.05     0.09     1.09     0  00:15        0.09
  J_1263               JUNCTION     0.02     0.03     1.29     0  00:15        0.03
  J_1264               JUNCTION     0.10     0.19     2.21     0  00:15        0.19
  J_1265               JUNCTION     0.03     0.06     2.16     0  00:15        0.06
  J_1266               JUNCTION     0.11     0.23     2.16     0  00:15        0.23
  J_1267               JUNCTION     0.01     0.03     1.15     0  00:15        0.03
  J_1268               JUNCTION     0.07     0.14     2.15     0  00:15        0.14
  J_1269               JUNCTION     0.03     0.05     1.14     0  00:15        0.05
  J_127                JUNCTION     0.00     0.01     1.36     0  00:15        0.01
  J_1270               JUNCTION     0.04     0.07     1.15     0  00:15        0.07
  J_1271               JUNCTION     0.05     0.09     1.24     0  00:15        0.09
  J_1272               JUNCTION     0.02     0.05     1.14     0  00:15        0.05
  J_1273               JUNCTION     0.04     0.09     1.08     0  00:15        0.09
  J_1274               JUNCTION     0.06     0.12     1.11     0  00:15        0.12
  J_1275               JUNCTION     0.07     0.16     1.41     0  00:15        0.16
  J_1276               JUNCTION     0.04     0.07     1.62     0  00:15        0.07
  J_1277               JUNCTION     0.08     0.14     1.44     0  00:15        0.14
  J_1278               JUNCTION     0.04     0.09     1.29     0  00:15        0.09
  J_1279               JUNCTION     0.04     0.08     1.27     0  00:15        0.08
  J_128                JUNCTION     0.00     0.00    -0.88     0  00:15        0.00
  J_1280               JUNCTION     0.08     0.14     2.29     0  00:15        0.14
  J_1281               JUNCTION     0.06     0.12     1.96     0  00:15        0.12
  J_1282               JUNCTION     0.05     0.09     2.19     0  00:15        0.09
  J_1283               JUNCTION     0.00     0.00     2.76     0  00:15        0.00
  J_1284               JUNCTION     0.02     0.05     1.24     0  00:15        0.05
  J_1286               JUNCTION     0.08     0.14     2.29     0  00:15        0.14
  J_1287               JUNCTION     0.06     0.11     2.31     0  00:15        0.11
  J_1288               JUNCTION     0.05     0.09     2.24     0  00:15        0.09
  J_1289               JUNCTION     0.02     0.04     2.19     0  00:15        0.04
  J_129                JUNCTION     0.01     0.02    -0.84     0  00:15        0.02
  J_1290               JUNCTION     0.06     0.11     2.33     0  00:15        0.11
  J_1291               JUNCTION     0.08     0.14     4.35     0  00:15        0.14
  J_1292               JUNCTION     0.03     0.05     2.15     0  00:15        0.05
  J_1293               JUNCTION     0.07     0.15     2.10     0  00:15        0.15
  J_1294               JUNCTION     0.06     0.11     3.30     0  00:15        0.11
  J_1295               JUNCTION     0.06     0.11     2.12     0  00:15        0.11
  J_1296               JUNCTION     0.06     0.12     3.02     0  00:15        0.12
  J_1297               JUNCTION     0.02     0.03     3.69     0  00:15        0.03
  J_1298               JUNCTION     0.05     0.09     4.01     0  00:15        0.09
  J_1299               JUNCTION     0.06     0.13     4.34     0  00:15        0.13
  J_13                 JUNCTION     0.00     0.00     1.05     0  00:15        0.00
  J_130                JUNCTION     0.00     0.01    -0.85     0  00:15        0.01
  J_1300               JUNCTION     0.09     0.16     3.01     0  00:15        0.16
  J_1301               JUNCTION     0.04     0.06     4.36     0  00:07        0.06
  J_1302               JUNCTION     0.02     0.04     2.05     0  00:15        0.04
  J_1303               JUNCTION     0.07     0.14     2.96     0  00:15        0.14
  J_1304               JUNCTION     0.03     0.06     4.42     0  00:15        0.06
  J_1305               JUNCTION     0.03     0.06     4.09     0  00:15        0.06
  J_1306               JUNCTION     0.02     0.04     2.93     0  00:15        0.04
  J_1307               JUNCTION     0.06     0.12     2.94     0  00:15        0.12
  J_1308               JUNCTION     0.06     0.09     3.09     0  00:07        0.09
  J_1309               JUNCTION     0.03     0.06     2.78     0  00:15        0.06
  J_131                JUNCTION     0.01     0.03    -0.83     0  00:15        0.03
  J_1310               JUNCTION     0.05     0.10     4.31     0  00:15        0.10
  J_1311               JUNCTION     0.07     0.13     4.59     0  00:15        0.13
  J_1312               JUNCTION     0.07     0.13     4.58     0  00:15        0.13
  J_1313               JUNCTION     0.05     0.10     4.52     0  00:15        0.10
  J_1314               JUNCTION     0.08     0.15     2.97     0  00:15        0.15
  J_1315               JUNCTION     0.01     0.03     2.08     0  00:15        0.03
  J_1316               JUNCTION     0.04     0.08     2.80     0  00:15        0.08
  J_1317               JUNCTION     0.08     0.14     2.95     0  00:15        0.14
  J_1318               JUNCTION     0.03     0.05     4.05     0  00:15        0.05
  J_1319               JUNCTION     0.05     0.11     2.62     0  00:15        0.11
  J_132                JUNCTION     0.01     0.02    -0.84     0  00:15        0.02
  J_1320               JUNCTION     0.06     0.12     4.02     0  00:15        0.12
  J_1321               JUNCTION     0.04     0.10     2.17     0  00:15        0.10
  J_1322               JUNCTION     0.01     0.01     2.81     0  00:15        0.01
  J_1323               JUNCTION     0.09     0.14     4.04     0  00:15        0.14
  J_1324               JUNCTION     0.06     0.10     2.20     0  00:15        0.10
  J_1325               JUNCTION     0.03     0.06     2.80     0  00:15        0.06
  J_1326               JUNCTION     0.01     0.01     3.49     0  00:15        0.01
  J_1327               JUNCTION     0.05     0.09     4.24     0  00:15        0.09
  J_1328               JUNCTION     0.03     0.06     2.80     0  00:15        0.06
  J_1329               JUNCTION     0.01     0.02     3.07     0  00:15        0.02
  J_133                JUNCTION     0.01     0.02    -0.85     0  00:15        0.02
  J_1330               JUNCTION     0.06     0.13     3.98     0  00:15        0.13
  J_1331               JUNCTION     0.00     0.01     3.48     0  00:15        0.01
  J_1332               JUNCTION     0.04     0.07     4.50     0  00:15        0.07
  J_1333               JUNCTION     0.01     0.02     3.87     0  00:15        0.02
  J_1334               JUNCTION     0.04     0.08     4.20     0  00:15        0.08
  J_1335               JUNCTION     0.02     0.06     2.21     0  00:15        0.06
  J_1336               JUNCTION     0.06     0.14     3.94     0  00:15        0.14
  J_1337               JUNCTION     0.06     0.10     4.39     0  00:15        0.10
  J_1338               JUNCTION     0.02     0.04     3.04     0  00:15        0.04
  J_1339               JUNCTION     0.07     0.11     2.28     0  00:15        0.11
  J_134                JUNCTION     0.00     0.01    -0.85     0  00:15        0.01
  J_1340               JUNCTION     0.06     0.11     4.11     0  00:15        0.11
  J_1341               JUNCTION     0.06     0.13     4.34     0  00:15        0.13
  J_1342               JUNCTION     0.05     0.12     4.10     0  00:15        0.12
  J_1343               JUNCTION     0.11     0.19     5.45     0  00:15        0.19
  J_1344               JUNCTION     0.03     0.05     3.05     0  00:15        0.05
  J_1345               JUNCTION     0.03     0.08     2.28     0  00:15        0.08
  J_1346               JUNCTION     0.07     0.12     5.37     0  00:15        0.12
  J_1347               JUNCTION     0.03     0.06     2.84     0  00:15        0.06
  J_1348               JUNCTION     0.11     0.19     5.14     0  00:15        0.19
  J_1349               JUNCTION     0.06     0.11     5.01     0  00:15        0.11
  J_135                JUNCTION     0.01     0.02     2.69     0  00:15        0.02
  J_1350               JUNCTION     0.02     0.04     2.93     0  00:15        0.04
  J_1351               JUNCTION     0.05     0.10     4.00     0  00:15        0.10
  J_1352               JUNCTION     0.06     0.12     4.22     0  00:15        0.12
  J_1353               JUNCTION     0.05     0.09     3.59     0  00:15        0.09
  J_1354               JUNCTION     0.00     0.00     2.00     0  00:15        0.00
  J_1355               JUNCTION     0.07     0.14     2.39     0  00:15        0.14
  J_1356               JUNCTION     0.03     0.06     2.80     0  00:15        0.06
  J_1357               JUNCTION     0.04     0.10     2.40     0  00:15        0.10
  J_1358               JUNCTION     0.04     0.08     1.94     0  00:15        0.08
  J_1359               JUNCTION     0.03     0.05     3.07     0  00:15        0.05
  J_136                JUNCTION     0.01     0.02    -0.85     0  00:15        0.02
  J_1360               JUNCTION     0.09     0.17     3.92     0  00:15        0.17
  J_1361               JUNCTION     0.06     0.12     2.27     0  00:15        0.12
  J_1362               JUNCTION     0.07     0.14     3.93     0  00:15        0.14
  J_1363               JUNCTION     0.07     0.14     3.94     0  00:15        0.14
  J_1364               JUNCTION     0.19     0.32     2.14     0  00:15        0.32
  J_1365               JUNCTION     0.03     0.07     1.75     0  00:15        0.07
  J_1366               JUNCTION     0.06     0.09     3.99     0  00:15        0.09
  J_1367               JUNCTION     0.02     0.04     2.84     0  00:15        0.04
  J_1368               JUNCTION     0.03     0.06     2.36     0  00:15        0.06
  J_1369               JUNCTION     0.04     0.08     2.18     0  00:15        0.08
  J_137                JUNCTION     0.02     0.07     1.46     0  00:15        0.07
  J_1370               JUNCTION     0.05     0.09     2.89     0  00:15        0.09
  J_1371               JUNCTION     0.09     0.21     2.11     0  00:15        0.21
  J_1372               JUNCTION     0.08     0.14     2.35     0  00:15        0.14
  J_1373               JUNCTION     0.08     0.14     2.33     0  00:15        0.14
  J_1374               JUNCTION     0.01     0.03     1.70     0  00:15        0.03
  J_1375               JUNCTION     0.07     0.12     2.29     0  00:15        0.12
  J_1376               JUNCTION     0.05     0.12     2.24     0  00:15        0.12
  J_1377               JUNCTION     0.05     0.11     2.26     0  00:15        0.11
  J_1378               JUNCTION     0.05     0.12     2.07     0  00:15        0.12
  J_1379               JUNCTION     0.03     0.06     1.59     0  00:15        0.06
  J_138                JUNCTION     0.03     0.07     2.41     0  00:15        0.07
  J_1380               JUNCTION     0.02     0.05     1.58     0  00:15        0.05
  J_1381               JUNCTION     0.03     0.05     1.61     0  00:15        0.05
  J_1382               JUNCTION     0.00     0.00     1.55     0  00:15        0.00
  J_1383               JUNCTION     0.05     0.09     2.09     0  00:15        0.09
  J_1384               JUNCTION     0.03     0.05     1.71     0  00:15        0.05
  J_1385               JUNCTION     0.03     0.04     2.44     0  00:09        0.04
  J_1386               JUNCTION     0.02     0.04     1.62     0  00:15        0.04
  J_1387               JUNCTION     0.00     0.01     1.55     0  00:15        0.01
  J_1388               JUNCTION     0.03     0.07     1.73     0  00:15        0.07
  J_1389               JUNCTION     0.06     0.12     2.52     0  00:15        0.12
  J_139                JUNCTION     0.01     0.02    -0.85     0  00:15        0.02
  J_1390               JUNCTION     0.06     0.11     2.41     0  00:15        0.11
  J_1391               JUNCTION     0.05     0.10     2.20     0  00:15        0.10
  J_1392               JUNCTION     0.03     0.05     1.68     0  00:15        0.05
  J_1393               JUNCTION     0.02     0.04     1.62     0  00:15        0.04
  J_1394               JUNCTION     0.02     0.05     1.60     0  00:15        0.05
  J_1395               JUNCTION     0.05     0.10     1.76     0  00:15        0.10
  J_1396               JUNCTION     0.07     0.15     2.65     0  00:15        0.15
  J_1397               JUNCTION     0.05     0.10     2.70     0  00:15        0.10
  J_1398               JUNCTION     0.05     0.10     2.80     0  00:15        0.10
  J_1399               JUNCTION     0.01     0.03     1.71     0  00:15        0.03
  J_14                 JUNCTION     0.00     0.01     1.51     0  00:15        0.01
  J_140                JUNCTION     0.04     0.08    -0.80     0  00:15        0.08
  J_1400               JUNCTION     0.02     0.05     1.67     0  00:15        0.05
  J_1401               JUNCTION     0.18     0.32     3.34     0  00:15        0.32
  J_1402               JUNCTION     0.05     0.08     1.74     0  00:14        0.08
  J_1403               JUNCTION     0.04     0.07     1.90     0  00:15        0.07
  J_1404               JUNCTION     0.18     0.32     3.33     0  00:15        0.32
  J_1405               JUNCTION     0.04     0.09     1.81     0  00:15        0.09
  J_1406               JUNCTION     0.02     0.05     1.71     0  00:15        0.05
  J_1407               JUNCTION     0.02     0.03     1.58     0  00:15        0.03
  J_1408               JUNCTION     0.09     0.17     3.02     0  00:15        0.17
  J_1409               JUNCTION     0.09     0.18     3.02     0  00:15        0.18
  J_141                JUNCTION     0.01     0.02    -0.85     0  00:15        0.02
  J_1410               JUNCTION     0.08     0.16     3.03     0  00:15        0.16
  J_1411               JUNCTION     0.08     0.16     2.99     0  00:15        0.16
  J_1412               JUNCTION     0.09     0.17     3.03     0  00:15        0.17
  J_1413               JUNCTION     0.06     0.11     1.78     0  00:15        0.11
  J_1414               JUNCTION     0.10     0.20     3.64     0  00:15        0.20
  J_1415               JUNCTION     0.09     0.17     3.67     0  00:15        0.17
  J_1416               JUNCTION     0.03     0.07     1.74     0  00:15        0.07
  J_1417               JUNCTION     0.03     0.05     3.72     0  00:07        0.05
  J_1418               JUNCTION     0.09     0.17     3.68     0  00:15        0.17
  J_1419               JUNCTION     0.10     0.19     2.96     0  00:15        0.19
  J_142                JUNCTION     0.01     0.04     1.78     0  00:15        0.04
  J_1420               JUNCTION     0.05     0.09     3.91     0  00:13        0.09
  J_1421               JUNCTION     0.09     0.18     2.95     0  00:15        0.18
  J_1422               JUNCTION     0.01     0.01     1.69     0  00:15        0.01
  J_1423               JUNCTION     0.04     0.10     2.86     0  00:15        0.10
  J_1425               JUNCTION     0.07     0.14     3.98     0  00:15        0.14
  J_1426               JUNCTION     0.03     0.05     1.64     0  00:15        0.05
  J_1427               JUNCTION     0.10     0.18     3.02     0  00:15        0.18
  J_1428               JUNCTION     0.05     0.10     2.88     0  00:15        0.10
  J_1429               JUNCTION     0.03     0.06     1.69     0  00:15        0.06
  J_143                JUNCTION     0.02     0.05    -0.80     0  00:15        0.05
  J_1430               JUNCTION     0.01     0.03     1.64     0  00:15        0.03
  J_1431               JUNCTION     0.07     0.12     2.91     0  00:15        0.12
  J_1432               JUNCTION     0.03     0.06     1.69     0  00:15        0.06
  J_1433               JUNCTION     0.02     0.04     1.68     0  00:15        0.04
  J_1434               JUNCTION     0.02     0.04     1.66     0  00:15        0.04
  J_1435               JUNCTION     0.02     0.05     1.64     0  00:15        0.05
  J_1436               JUNCTION     0.02     0.04     1.67     0  00:15        0.04
  J_1437               JUNCTION     0.00     0.01     2.79     0  00:15        0.01
  J_1438               JUNCTION     0.02     0.05     3.97     0  00:15        0.05
  J_1439               JUNCTION     0.02     0.04     2.79     0  00:15        0.04
  J_144                JUNCTION     0.05     0.09     2.92     0  00:15        0.09
  J_1440               JUNCTION     0.02     0.04     1.64     0  00:15        0.04
  J_1441               JUNCTION     0.02     0.04     1.64     0  00:15        0.04
  J_1442               JUNCTION     0.02     0.03     1.68     0  00:15        0.03
  J_1443               JUNCTION     0.02     0.04     1.63     0  00:15        0.04
  J_1444               JUNCTION     0.02     0.04     1.63     0  00:15        0.04
  J_1445               JUNCTION     0.05     0.11     2.92     0  00:15        0.11
  J_1446               JUNCTION     0.02     0.03     1.54     0  00:15        0.03
  J_1447               JUNCTION     0.04     0.08     2.87     0  00:15        0.08
  J_1448               JUNCTION     0.03     0.06     2.82     0  00:15        0.06
  J_1449               JUNCTION     0.02     0.04     1.70     0  00:15        0.04
  J_145                JUNCTION     0.02     0.05     2.38     0  00:15        0.05
  J_1450               JUNCTION     0.02     0.04     1.68     0  00:15        0.04
  J_1451               JUNCTION     0.02     0.04     1.68     0  00:15        0.04
  J_1452               JUNCTION     0.03     0.06     1.66     0  00:15        0.06
  J_1453               JUNCTION     0.03     0.06     1.66     0  00:15        0.06
  J_1454               JUNCTION     0.05     0.08     1.98     0  00:15        0.08
  J_1455               JUNCTION     0.05     0.09     3.60     0  00:15        0.09
  J_1456               JUNCTION     0.05     0.10     2.00     0  00:15        0.10
  J_1457               JUNCTION     0.06     0.11     4.04     0  00:15        0.11
  J_1458               JUNCTION     0.02     0.03     1.62     0  00:15        0.03
  J_1459               JUNCTION     0.03     0.05     2.40     0  00:15        0.05
  J_146                JUNCTION     0.00     0.00     1.77     0  00:15        0.00
  J_1460               JUNCTION     0.09     0.17     2.72     0  00:15        0.17
  J_1461               JUNCTION     0.02     0.03     1.63     0  00:15        0.03
  J_1462               JUNCTION     0.02     0.05     1.64     0  00:15        0.05
  J_1463               JUNCTION     0.04     0.07     2.52     0  00:15        0.07
  J_1464               JUNCTION     0.02     0.03     1.96     0  00:15        0.03
  J_1465               JUNCTION     0.03     0.06     2.96     0  00:15        0.06
  J_1466               JUNCTION     0.02     0.04     3.54     0  00:15        0.04
  J_1467               JUNCTION     0.02     0.04     1.97     0  00:15        0.04
  J_1468               JUNCTION     0.01     0.04     3.16     0  00:15        0.04
  J_1469               JUNCTION     0.05     0.09     3.30     0  00:15        0.09
  J_147                JUNCTION     0.00     0.01    -0.86     0  00:15        0.01
  J_1470               JUNCTION     0.05     0.09     3.30     0  00:06        0.08
  J_1471               JUNCTION     0.07     0.11     3.08     0  00:13        0.11
  J_1472               JUNCTION     0.04     0.07     1.75     0  00:15        0.07
  J_1473               JUNCTION     0.05     0.10     3.10     0  00:15        0.10
  J_1474               JUNCTION     0.04     0.08     3.63     0  00:15        0.08
  J_1475               JUNCTION     0.04     0.09     3.30     0  00:15        0.09
  J_1476               JUNCTION     0.04     0.07     3.66     0  00:15        0.07
  J_1477               JUNCTION     0.01     0.03     2.13     0  00:15        0.03
  J_1478               JUNCTION     0.03     0.05     2.15     0  00:15        0.05
  J_1479               JUNCTION     0.03     0.06     3.06     0  00:15        0.06
  J_148                JUNCTION     0.02     0.04    -0.87     0  00:15        0.04
  J_1480               JUNCTION     0.07     0.11     2.86     0  00:15        0.11
  J_1481               JUNCTION     0.04     0.07     3.40     0  00:15        0.07
  J_1482               JUNCTION     0.05     0.10     1.76     0  00:15        0.10
  J_1483               JUNCTION     0.04     0.08     3.38     0  00:15        0.08
  J_1484               JUNCTION     0.05     0.10     2.76     0  00:15        0.10
  J_1485               JUNCTION     0.04     0.08     3.43     0  00:15        0.08
  J_1486               JUNCTION     0.04     0.09     3.54     0  00:15        0.09
  J_1487               JUNCTION     0.02     0.05     2.56     0  00:15        0.05
  J_1488               JUNCTION     0.03     0.05     2.60     0  00:15        0.05
  J_1489               JUNCTION     0.03     0.05     1.73     0  00:15        0.05
  J_149                JUNCTION     0.01     0.02    -0.87     0  00:15        0.02
  J_1490               JUNCTION     0.04     0.10     2.98     0  00:15        0.10
  J_1491               JUNCTION     0.01     0.02     2.12     0  00:15        0.02
  J_1492               JUNCTION     0.05     0.09     3.47     0  00:15        0.09
  J_1493               JUNCTION     0.02     0.04     4.04     0  00:15        0.04
  J_1494               JUNCTION     0.04     0.08     1.78     0  00:15        0.08
  J_1495               JUNCTION     0.10     0.18     3.55     0  00:15        0.18
  J_1496               JUNCTION     0.08     0.12     3.42     0  00:15        0.12
  J_1497               JUNCTION     0.09     0.16     3.56     0  00:15        0.16
  J_1498               JUNCTION     0.07     0.16     3.16     0  00:15        0.16
  J_1499               JUNCTION     0.09     0.14     3.34     0  00:10        0.14
  J_15                 JUNCTION     0.01     0.03     1.78     0  00:15        0.03
  J_150                JUNCTION     0.01     0.03    -0.87     0  00:15        0.03
  J_1500               JUNCTION     0.03     0.06     3.41     0  00:15        0.06
  J_1501               JUNCTION     0.04     0.08     3.11     0  00:15        0.08
  J_1502               JUNCTION     0.01     0.04     3.54     0  00:15        0.04
  J_1503               JUNCTION     0.04     0.07     2.67     0  00:15        0.07
  J_1504               JUNCTION     0.04     0.07     2.65     0  00:15        0.07
  J_1505               JUNCTION     0.07     0.13     3.68     0  00:15        0.13
  J_1506               JUNCTION     0.04     0.07     3.87     0  00:15        0.07
  J_1507               JUNCTION     0.04     0.06     3.36     0  00:15        0.06
  J_1508               JUNCTION     0.00     0.01     1.72     0  00:15        0.01
  J_1509               JUNCTION     0.03     0.07     2.82     0  00:15        0.07
  J_151                JUNCTION     0.01     0.02     2.35     0  00:15        0.02
  J_1510               JUNCTION     0.00     0.00     2.27     0  00:15        0.00
  J_1511               JUNCTION     0.07     0.13     2.69     0  00:15        0.13
  J_1512               JUNCTION     0.06     0.10     2.68     0  00:15        0.10
  J_1513               JUNCTION     0.03     0.06     3.41     0  00:15        0.06
  J_1514               JUNCTION     0.06     0.13     2.68     0  00:15        0.13
  J_1515               JUNCTION     0.05     0.10     3.45     0  00:15        0.10
  J_1516               JUNCTION     0.05     0.11     2.65     0  00:15        0.11
  J_1519               JUNCTION     0.02     0.04     2.73     0  00:15        0.04
  J_152                JUNCTION     0.00     0.00     1.74     0  00:15        0.00
  J_1520               JUNCTION     0.04     0.09     2.63     0  00:15        0.09
  J_1521               JUNCTION     0.05     0.09     3.24     0  00:15        0.09
  J_1522               JUNCTION     0.03     0.07     3.83     0  00:15        0.07
  J_1523               JUNCTION     0.05     0.09     2.59     0  00:15        0.09
  J_1524               JUNCTION     0.05     0.10     3.69     0  00:15        0.10
  J_1525               JUNCTION     0.04     0.09     3.49     0  00:15        0.09
  J_1526               JUNCTION     0.04     0.08     2.61     0  00:15        0.08
  J_1528               JUNCTION     0.04     0.08     2.58     0  00:15        0.08
  J_1529               JUNCTION     0.04     0.08     3.43     0  00:15        0.08
  J_153                JUNCTION     0.03     0.06    -0.85     0  00:15        0.06
  J_1530               JUNCTION     0.04     0.09     3.39     0  00:15        0.09
  J_1531               JUNCTION     0.00     0.00     3.08     0  00:15        0.00
  J_1532               JUNCTION     0.04     0.08     2.60     0  00:15        0.08
  J_1533               JUNCTION     0.04     0.08     2.58     0  00:15        0.08
  J_1534               JUNCTION     0.05     0.09     3.49     0  00:15        0.09
  J_1535               JUNCTION     0.03     0.06     3.36     0  00:15        0.06
  J_1536               JUNCTION     0.06     0.12     1.87     0  00:15        0.12
  J_1537               JUNCTION     0.07     0.12     3.57     0  00:15        0.12
  J_1538               JUNCTION     0.04     0.07     4.19     0  00:15        0.07
  J_1539               JUNCTION     0.07     0.13     3.53     0  00:14        0.13
  J_154                JUNCTION     0.03     0.08     1.48     0  00:15        0.08
  J_1540               JUNCTION     0.04     0.09     3.53     0  00:15        0.09
  J_1541               JUNCTION     0.05     0.10     3.50     0  00:15        0.10
  J_1542               JUNCTION     0.03     0.06     3.86     0  00:15        0.06
  J_1543               JUNCTION     0.03     0.05     3.98     0  00:15        0.05
  J_1544               JUNCTION     0.03     0.06     4.01     0  00:15        0.06
  J_1545               JUNCTION     0.02     0.05     4.30     0  00:15        0.05
  J_1546               JUNCTION     0.02     0.03     3.92     0  00:15        0.03
  J_1547               JUNCTION     0.05     0.10     3.37     0  00:15        0.10
  J_1548               JUNCTION     0.03     0.05     4.02     0  00:15        0.05
  J_1549               JUNCTION     0.01     0.01     3.28     0  00:15        0.01
  J_155                JUNCTION     0.01     0.03    -0.90     0  00:15        0.03
  J_1550               JUNCTION     0.02     0.06     3.33     0  00:15        0.06
  J_1551               JUNCTION     0.03     0.06     4.29     0  00:15        0.06
  J_1552               JUNCTION     0.00     0.00     3.33     0  00:15        0.00
  J_1553               JUNCTION     0.00     0.00     3.33     0  00:00        0.00
  J_1554               JUNCTION     0.03     0.05     4.27     0  00:15        0.05
  J_1555               JUNCTION     0.04     0.07     4.34     0  00:15        0.07
  J_1556               JUNCTION     0.04     0.08     4.35     0  00:15        0.08
  J_1557               JUNCTION     0.05     0.09     4.39     0  00:15        0.09
  J_1558               JUNCTION     0.03     0.06     4.32     0  00:15        0.06
  J_1559               JUNCTION     0.03     0.07     4.37     0  00:15        0.07
  J_156                JUNCTION     0.00     0.00    -0.92     0  00:15        0.00
  J_1560               JUNCTION     0.03     0.05     4.32     0  00:15        0.05
  J_1561               JUNCTION     0.03     0.06     4.36     0  00:15        0.06
  J_1562               JUNCTION     0.04     0.08     4.43     0  00:15        0.08
  J_1563               JUNCTION     0.03     0.05     4.40     0  00:15        0.05
  J_1564               JUNCTION     0.05     0.08     4.48     0  00:15        0.08
  J_1565               JUNCTION     0.04     0.06     4.51     0  00:15        0.06
  J_1566               JUNCTION     0.03     0.06     1.76     0  00:15        0.06
  J_157                JUNCTION     0.01     0.03     2.35     0  00:15        0.03
  J_1571               JUNCTION     0.09     0.17     1.97     0  00:15        0.17
  J_1572               JUNCTION     0.00     0.01     1.76     0  00:15        0.01
  J_1573               JUNCTION     0.04     0.09     1.29     0  00:15        0.09
  J_1576               JUNCTION     0.00     0.00    -1.00     0  00:15        0.00
  J_1577               JUNCTION     0.00     0.01     1.23     0  00:15        0.01
  J_158                JUNCTION     0.00     0.00    -0.87     0  00:15        0.00
  J_1581               JUNCTION     0.00     0.00    -0.75     0  00:14        0.00
  J_1583               JUNCTION     0.00     0.00    -1.26     0  00:15        0.00
  J_1588               JUNCTION     0.00     0.00    -2.10     0  00:15        0.00
  J_1589               JUNCTION     0.00     0.00    -3.68     0  00:15        0.00
  J_159                JUNCTION     0.04     0.10    -0.75     0  00:15        0.10
  J_1590               JUNCTION     0.00     0.00    -1.39     0  00:15        0.00
  J_1592               JUNCTION     0.03     0.06    -0.59     0  00:15        0.06
  J_1593               JUNCTION     0.02     0.05    -0.65     0  00:15        0.05
  J_1594               JUNCTION     0.00     0.00    -2.05     0  00:15        0.00
  J_1596               JUNCTION     0.01     0.01    -0.99     0  00:15        0.01
  J_1597               JUNCTION     0.02     0.04    -0.66     0  00:15        0.04
  J_1598               JUNCTION     0.02     0.05    -0.60     0  00:15        0.05
  J_1599               JUNCTION     0.03     0.06    -0.54     0  00:15        0.06
  J_16                 JUNCTION     0.00     0.00     0.45     0  00:15        0.00
  J_160                JUNCTION     0.00     0.00     0.86     0  00:00        0.00
  J_1600               JUNCTION     0.03     0.04    -0.86     0  00:12        0.04
  J_1602               JUNCTION     0.02     0.03    -1.62     0  00:15        0.03
  J_1603               JUNCTION     0.03     0.06    -1.59     0  00:15        0.06
  J_1604               JUNCTION     0.01     0.02    -1.73     0  00:15        0.02
  J_1605               JUNCTION     0.02     0.04     0.54     0  00:15        0.04
  J_1606               JUNCTION     0.03     0.06     0.81     0  00:15        0.06
  J_1607               JUNCTION     0.04     0.06     3.86     0  00:15        0.06
  J_1608               JUNCTION     0.08     0.13     2.38     0  00:15        0.13
  J_1609               JUNCTION     0.04     0.06     4.13     0  00:05        0.06
  J_161                JUNCTION     0.03     0.07    -0.85     0  00:15        0.07
  J_1611               JUNCTION     0.05     0.08     4.25     0  00:05        0.08
  J_1612               JUNCTION     0.03     0.05     3.98     0  00:15        0.05
  J_1613               JUNCTION     0.05     0.10     1.95     0  00:15        0.10
  J_1614               JUNCTION     0.04     0.06     3.70     0  00:09        0.06
  J_1615               JUNCTION     0.02     0.03     2.85     0  00:11        0.03
  J_1616               JUNCTION     0.03     0.04     3.68     0  00:05        0.04
  J_1617               JUNCTION     0.03     0.05     4.62     0  00:11        0.05
  J_1618               JUNCTION     0.01     0.03     3.03     0  00:15        0.03
  J_1619               JUNCTION     0.03     0.05     4.84     0  00:15        0.05
  J_162                JUNCTION     0.01     0.03    -0.90     0  00:15        0.03
  J_1620               JUNCTION     0.04     0.06     3.47     0  00:15        0.06
  J_1621               JUNCTION     0.01     0.02     1.22     0  00:15        0.02
  J_1622               JUNCTION     0.00     0.01     3.51     0  00:15        0.01
  J_1623               JUNCTION     0.03     0.05     3.56     0  00:15        0.05
  J_1624               JUNCTION     0.01     0.03     2.86     0  00:15        0.03
  J_1627               JUNCTION     0.03     0.05     3.55     0  00:06        0.05
  J_1628               JUNCTION     0.03     0.06     1.06     0  00:15        0.06
  J_1629               JUNCTION     0.03     0.05     3.80     0  00:05        0.05
  J_163                JUNCTION     0.00     0.01    -0.87     0  00:15        0.01
  J_1633               JUNCTION     0.04     0.07     0.68     0  00:15        0.07
  J_1634               JUNCTION     0.02     0.03     1.88     0  00:15        0.03
  J_1636               JUNCTION     0.02     0.04     3.35     0  00:15        0.04
  J_1637               JUNCTION     0.10     0.16     2.06     0  00:05        0.16
  J_1638               JUNCTION     0.07     0.10     1.98     0  00:07        0.10
  J_1639               JUNCTION     0.03     0.05     3.33     0  00:15        0.05
  J_164                JUNCTION     0.03     0.07     2.78     0  00:15        0.07
  J_1640               JUNCTION     0.04     0.06     2.04     0  00:05        0.06
  J_1641               JUNCTION     0.03     0.04     4.85     0  00:15        0.04
  J_1642               JUNCTION     0.04     0.06     3.34     0  00:08        0.06
  J_1643               JUNCTION     0.04     0.08     1.29     0  00:15        0.08
  J_1644               JUNCTION     0.02     0.04     2.31     0  00:05        0.04
  J_1645               JUNCTION     0.03     0.05     3.13     0  00:15        0.05
[...]
  C_2552                  1.00   0.00  0.00  0.00  0.66  0.00  0.00  0.00  0.00  0.00
  C_2553                  1.00   0.00  0.00  0.00  0.66  0.00  0.00  0.00  0.00  0.00
  C_2554                  1.00   0.00  0.00  0.00  0.66  0.00  0.00  0.00  0.00  0.00
  C_2555                  1.00   0.00  0.00  0.00  0.66  0.00  0.00  0.00  0.00  0.00
  C_2556                  1.00   0.00  0.00  0.00  0.66  0.00  0.00  0.00  0.00  0.00
  C_2557                  1.00   0.00  0.00  0.00  0.66  0.00  0.00  0.00  0.00  0.00
  C_2558                  1.00   0.00  0.00  0.00  0.66  0.00  0.00  0.00  0.00  0.00
  C_2560                  1.00   0.00  0.00  0.00  0.66  0.00  0.00  0.00  0.00  0.00
  C_2561                  1.00   0.00  0.00  0.00  0.66  0.00  0.00  0.00  0.00  0.00
  C_2562                  1.00   0.00  0.00  0.00  0.66  0.00  0.00  0.00  0.00  0.00
  C_2564                  1.00   0.00  0.66  0.00  0.00  0.00  0.00  0.00  0.00  0.00
  C_2565                  1.00   0.00  0.00  0.00  0.66  0.00  0.00  0.00  0.00  0.00
  C_2566                  1.00   0.00  0.00  0.00  0.66  0.00  0.00  0.00  0.00  0.00
  C_2567                  1.00   0.00  0.00  0.00  0.66  0.00  0.00  0.00  0.00  0.00
  C_2568                  1.00   0.00  0.00  0.00  0.66  0.00  0.00  0.00  0.67  0.00
  C_2569                  1.00   0.00  0.00  0.00  0.66  0.00  0.00  0.00  0.00  0.00
  C_2572                  1.00   0.00  0.00  0.00  0.66  0.00  0.00  0.00  0.43  0.00
  C_2574                  1.00   0.00  0.00  0.00  0.23  0.42  0.00  0.00  0.00  0.00
  C_2575                  1.00   0.00  0.00  0.00  0.66  0.00  0.00  0.00  0.67  0.00
  C_2576                  1.00   0.00  0.00  0.00  0.66  0.00  0.00  0.00  0.00  0.00
  C_2577                  1.00   0.00  0.27  0.00  0.38  0.00  0.00  0.00  0.38  0.00
  C_2578                  1.00   0.00  0.00  0.00  0.66  0.00  0.00  0.00  0.00  0.00
  C_2581                  1.00   0.33  0.33  0.00  0.00  0.00  0.00  0.00  0.00  0.00
  C_2582                  1.00   0.48  0.00  0.00  0.18  0.00  0.00  0.00  0.01  0.00
  C_2583                  1.00   0.62  0.04  0.00  0.00  0.00  0.00  0.00  0.00  0.00
  C_2584                  1.00   0.38  0.00  0.00  0.27  0.00  0.00  0.00  0.00  0.00
  C_2585                  1.00   0.00  0.00  0.00  0.66  0.00  0.00  0.00  0.00  0.00
  C_2586                  1.00   0.00  0.00  0.00  0.66  0.00  0.00  0.00  0.00  0.00
  C_2587                  1.00   0.00  0.00  0.00  0.66  0.00  0.00  0.00  0.00  0.00
  C_2588                  1.00   0.00  0.00  0.00  0.66  0.00  0.00  0.00  0.62  0.00
  C_2589                  3.03   0.00  0.00  0.00  0.66  0.00  0.00  0.00  0.00  0.00
  C_2590                  1.00   0.00  0.00  0.00  0.66  0.00  0.00  0.00  0.00  0.00
  C_2591                  1.00   0.00  0.00  0.00  0.66  0.00  0.00  0.00  0.67  0.00
  C_2592                  1.00   0.00  0.00  0.00  0.66  0.00  0.00  0.00  0.00  0.00
  C_2596                  5.43   0.66  0.00  0.00  0.00  0.00  0.00  0.00  0.00  0.00
  C_2599                  1.00   0.00  0.00  0.00  0.66  0.00  0.00  0.00  0.00  0.00
  C_2600                  1.00   0.00  0.00  0.00  0.66  0.00  0.00  0.00  0.67  0.00
  C_2602                  2.27   0.00  0.66  0.00  0.00  0.00  0.00  0.00  0.00  0.00
  C_2603                  1.00   0.66  0.00  0.00  0.00  0.00  0.00  0.00  0.00  0.00
  C_2606                  1.00   0.00  0.00  0.00  0.66  0.00  0.00  0.00  0.00  0.00
  C_2607                  1.00   0.00  0.00  0.00  0.66  0.00  0.00  0.00  0.00  0.00
  C_2610                  1.00   0.00  0.00  0.00  0.66  0.00  0.00  0.00  0.00  0.00
  C_2612                  1.00   0.48  0.00  0.00  0.18  0.00  0.00  0.00  0.00  0.00
  C_2617                  1.00   0.66  0.00  0.00  0.00  0.00  0.00  0.00  0.00  0.00
  C_2619                  1.00   0.66  0.00  0.00  0.00  0.00  0.00  0.00  0.00  0.00
  C_2620                  1.00   0.66  0.00  0.00  0.00  0.00  0.00  0.00  0.00  0.00
  C_2621                  1.00   0.00  0.66  0.00  0.00  0.00  0.00  0.00  0.00  0.00
  C_2622                  1.00   0.00  0.66  0.00  0.00  0.00  0.00  0.00  0.00  0.00
  C_2624                  1.00   0.00  0.66  0.00  0.00  0.00  0.00  0.00  0.00  0.00
  C_2626                  1.00   0.00  0.66  0.00  0.00  0.00  0.00  0.00  0.00  0.00
  C_2627                  1.00   0.00  0.00  0.00  0.66  0.00  0.00  0.00  0.00  0.00
  C_2629                  1.00   0.00  0.00  0.00  0.66  0.00  0.00  0.00  0.67  0.00
  C_2630                  1.00   0.00  0.00  0.00  0.66  0.00  0.00  0.00  0.00  0.00
  C_2631                  1.00   0.00  0.00  0.00  0.66  0.00  0.00  0.00  0.00  0.00
  C_2632                  1.00   0.00  0.00  0.00  0.66  0.00  0.00  0.00  0.00  0.00
  C_2633                  1.00   0.00  0.00  0.00  0.66  0.00  0.00  0.00  0.00  0.00
  C_2634                  1.00   0.00  0.00  0.00  0.66  0.00  0.00  0.00  0.00  0.00
  C_2635                  1.00   0.00  0.00  0.00  0.66  0.00  0.00  0.00  0.67  0.00
  C_2636                  1.00   0.00  0.00  0.00  0.66  0.00  0.00  0.00  0.00  0.00
  C_2637                  1.00   0.00  0.00  0.00  0.66  0.00  0.00  0.00  0.00  0.00
  C_2638                  1.00   0.00  0.00  0.00  0.66  0.00  0.00  0.00  0.00  0.00
  C_2639                  1.00   0.00  0.00  0.00  0.66  0.00  0.00  0.00  0.00  0.00
  C_2640                  1.40   0.00  0.00  0.00  0.66  0.00  0.00  0.00  0.00  0.00
  C_2641                  1.00   0.00  0.00  0.00  0.66  0.00  0.00  0.00  0.00  0.00
  C_2642                  1.00   0.00  0.00  0.00  0.66  0.00  0.00  0.00  0.00  0.00
  C_2643                  1.00   0.00  0.00  0.00  0.66  0.00  0.00  0.00  0.00  0.00
  C_2644                  1.00   0.00  0.00  0.00  0.66  0.00  0.00  0.00  0.00  0.00
  C_2645                  1.00   0.00  0.00  0.00  0.66  0.00  0.00  0.00  0.00  0.00
  C_2646                  1.00   0.00  0.00  0.00  0.66  0.00  0.00  0.00  0.31  0.00
  C_2647                  1.00   0.00  0.60  0.00  0.05  0.00  0.00  0.00  0.05  0.00
  C_2648                  1.00   0.00  0.00  0.00  0.66  0.00  0.00  0.00  0.00  0.00
  C_2649                  1.00   0.00  0.00  0.00  0.66  0.00  0.00  0.00  0.00  0.00
  C_2650                  1.00   0.00  0.00  0.00  0.66  0.00  0.00  0.00  0.00  0.00
  C_2651                  1.00   0.00  0.00  0.00  0.66  0.00  0.00  0.00  0.00  0.00
  C_2652                  1.00   0.00  0.00  0.00  0.66  0.00  0.00  0.00  0.20  0.00
  C_2653                  1.00   0.00  0.00  0.00  0.66  0.00  0.00  0.00  0.00  0.00
  C_2654                  1.00   0.00  0.00  0.00  0.66  0.00  0.00  0.00  0.00  0.00
  C_2655                  1.00   0.00  0.00  0.00  0.66  0.00  0.00  0.00  0.11  0.00
  C_2656                  1.00   0.00  0.00  0.00  0.66  0.00  0.00  0.00  0.28  0.00
  C_2657                  1.00   0.00  0.00  0.00  0.66  0.00  0.00  0.00  0.16  0.00
  C_2658                  1.00   0.00  0.00  0.00  0.66  0.00  0.00  0.00  0.00  0.00
  C_2659                  1.00   0.00  0.00  0.00  0.66  0.00  0.00  0.00  0.00  0.00
  C_2660                  1.00   0.00  0.00  0.00  0.66  0.00  0.00  0.00  0.00  0.00
  C_2661                  1.00   0.00  0.00  0.00  0.66  0.00  0.00  0.00  0.00  0.00
  C_2662                  2.95   0.44  0.00  0.00  0.22  0.00  0.00  0.00  0.00  0.00
  C_2663                  1.00   0.00  0.66  0.00  0.00  0.00  0.00  0.00  0.00  0.00
  C_2664                  1.00   0.00  0.00  0.00  0.66  0.00  0.00  0.00  0.00  0.00
  C_2665                  1.00   0.00  0.00  0.00  0.66  0.00  0.00  0.00  0.67  0.00
  C_2666                  1.00   0.00  0.00  0.00  0.66  0.00  0.00  0.00  0.00  0.00
  C_2667                  1.00   0.00  0.00  0.00  0.66  0.00  0.00  0.00  0.00  0.00
  C_2668                  1.00   0.00  0.00  0.00  0.66  0.00  0.00  0.00  0.00  0.00
  C_2669                  1.00   0.00  0.00  0.00  0.66  0.00  0.00  0.00  0.00  0.00
  C_2670                  1.00   0.00  0.00  0.00  0.66  0.00  0.00  0.00  0.00  0.00
  C_2671                  1.00   0.00  0.00  0.00  0.66  0.00  0.00  0.00  0.67  0.00
  C_2672                  1.00   0.00  0.00  0.00  0.66  0.00  0.00  0.00  0.00  0.00
  C_2673                  1.00   0.00  0.00  0.00  0.66  0.00  0.00  0.00  0.00  0.00
  C_2674                  1.00   0.00  0.00  0.00  0.22  0.44  0.00  0.00  0.00  0.00
  C_2675                  1.00   0.00  0.00  0.00  0.66  0.00  0.00  0.00  0.00  0.00
  C_2676                  1.00   0.10  0.56  0.00  0.00  0.00  0.00  0.00  0.00  0.00
  C_2677                  1.00   0.00  0.10  0.00  0.56  0.00  0.00  0.00  0.57  0.00
  C_2678                  1.00   0.00  0.00  0.00  0.66  0.00  0.00  0.00  0.00  0.00
  C_2679                  1.00   0.00  0.00  0.00  0.66  0.00  0.00  0.00  0.00  0.00
  C_2680                  1.00   0.00  0.00  0.00  0.64  0.01  0.00  0.00  0.00  0.00
  C_2681                  1.00   0.00  0.00  0.00  0.66  0.00  0.00  0.00  0.00  0.00
  C_2682                  1.00   0.00  0.00  0.00  0.00  0.66  0.00  0.00  0.00  0.00
  C_2683                  1.00   0.00  0.00  0.00  0.66  0.00  0.00  0.00  0.00  0.00
  C_2684                  1.00   0.00  0.00  0.00  0.66  0.00  0.00  0.00  0.42  0.00
  C_2685                  1.00   0.00  0.00  0.00  0.66  0.00  0.00  0.00  0.00  0.00
  C_2686                  1.00   0.00  0.00  0.00  0.66  0.00  0.00  0.00  0.00  0.00
  C_5001                  1.64   0.00  0.00  0.00  0.66  0.00  0.00  0.00  0.00  0.00
  C_5002                  1.00   0.00  0.00  0.00  0.66  0.00  0.00  0.00  0.00  0.00
  C_5003                  1.00   0.00  0.66  0.00  0.00  0.00  0.00  0.00  0.00  0.00
  C_5005                  1.00   0.66  0.00  0.00  0.00  0.00  0.00  0.00  0.00  0.00
  C_5006                  1.00   0.00  0.00  0.00  0.66  0.00  0.00  0.00  0.00  0.00
  C_1386                  1.00   0.00  0.00  0.00  0.66  0.00  0.00  0.00  0.00  0.00
  C_1387                  1.00   0.00  0.00  0.00  0.66  0.00  0.00  0.00  0.00  0.00
  C_1404                  1.00   0.00  0.00  0.00  0.00  0.66  0.00  0.00  0.00  0.00
  C_5007                  1.00   0.00  0.00  0.00  0.66  0.00  0.00  0.00  0.67  0.00
  C_1414                  1.00   0.00  0.00  0.00  0.41  0.25  0.00  0.00  0.00  0.00
  C_1070                  1.00   0.00  0.00  0.00  0.66  0.00  0.00  0.00  0.00  0.00
  C_1182                  1.00   0.00  0.00  0.00  0.66  0.00  0.00  0.00  0.00  0.00
  C_2623                  1.00   0.00  0.00  0.00  0.66  0.00  0.00  0.00  0.00  0.00
  C_807                   1.00   0.00  0.00  0.00  0.66  0.00  0.00  0.00  0.00  0.00
  CN_1                    1.00   0.00  0.66  0.00  0.00  0.00  0.00  0.00  0.00  0.00
  
  
  *************************
  Conduit Surcharge Summary
  *************************
  
  ----------------------------------------------------------------------------
                                                           Hours        Hours 
                         --------- Hours Full --------   Above Full   Capacity
  Conduit                Both Ends  Upstream  Dnstream   Normal Flow   Limited
  ----------------------------------------------------------------------------
  C_25                        0.01      0.01      0.17      0.01         0.01
  C_73                        0.01      0.01      0.17      0.01         0.01
  C_103                       0.01      0.01      0.17      0.01         0.01
  C_154                       0.01      0.01      0.01      0.17         0.01
  C_166                       0.01      0.01      0.17      0.01         0.01
  C_173                       0.01      0.06      0.01      0.01         0.01
  C_176                       0.01      0.01      0.17      0.01         0.01
  C_178                       0.01      0.01      0.17      0.01         0.01
  C_207                       0.01      0.01      0.17      0.01         0.01
  C_238                       0.01      0.01      0.17      0.01         0.01
  C_271                       0.01      0.01      0.01      0.17         0.01
  C_272                       0.01      0.01      0.01      0.11         0.01
  C_275                       0.01      0.01      0.17      0.01         0.01
  C_316                       0.01      0.01      0.17      0.01         0.01
  C_325                       0.01      0.01      0.01      0.01         0.01
  C_378                       0.01      0.01      0.17      0.01         0.01
  C_400                       0.01      0.01      0.01      0.15         0.01
  C_489                       0.01      0.01      0.01      0.17         0.01
  C_493                       0.01      0.01      0.01      0.17         0.01
  C_544                       0.01      0.01      0.01      0.16         0.01
  C_545                       0.01      0.01      0.01      0.13         0.01
  C_569                       0.01      0.01      0.01      0.09         0.01
  C_642                       0.01      0.01      0.01      0.05         0.01
  C_646                       0.01      0.01      0.01      0.04         0.01
  C_651                       0.01      0.02      0.01      0.15         0.01
  C_720                       0.01      0.01      0.01      0.17         0.01
  C_725                       0.01      0.01      0.01      0.04         0.01
  C_773                       0.01      0.01      0.01      0.17         0.01
  C_805                       0.01      0.01      0.01      0.03         0.01
  C_825                       0.01      0.01      0.17      0.01         0.01
  C_832                       0.01      0.01      0.01      0.14         0.01
  C_856                       0.01      0.01      0.17      0.01         0.01
  C_883                       0.01      0.01      0.17      0.01         0.01
  C_884                       0.01      0.01      0.05      0.01         0.01
  C_909                       0.01      0.01      0.01      0.17         0.01
  C_916                       0.01      0.01      0.01      0.07         0.01
  C_963                       0.01      0.01      0.01      0.03         0.01
  C_988                       0.01      0.01      0.10      0.01         0.01
  C_989                       0.01      0.01      0.01      0.01         0.01
  C_1000                      0.01      0.01      0.12      0.01         0.01
  C_1020                      0.01      0.01      0.17      0.01         0.01
  C_1179                      0.01      0.01      0.01      0.02         0.01
  C_1354                      0.01      0.01      0.01      0.06         0.01
  C_1439                      0.01      0.01      0.01      0.04         0.01
  C_1444                      0.01      0.12      0.01      0.01         0.01
  C_1902                      0.01      0.01      0.01      0.17         0.01
  C_1989                      0.01      0.01      0.01      0.16         0.01
  C_2000                      0.01      0.01      0.01      0.15         0.01
  C_2001                      0.01      0.01      0.01      0.17         0.01
  C_2009                      0.01      0.01      0.01      0.15         0.01
  C_2295                      0.01      0.17      0.01      0.17         0.01
  C_2517                      0.01      0.01      0.17      0.01         0.01
  C_2536                      0.01      0.01      0.01      0.10         0.01
  C_2566                      0.01      0.01      0.17      0.01         0.01
  
  
  ***************
  Pumping Summary
  ***************
  
  ---------------------------------------------------------------------------------------------------------
                                                  Min       Avg       Max     Total     Power    % Time Off
                        Percent   Number of      Flow      Flow      Flow    Volume     Usage    Pump Curve
  Pump                 Utilized   Start-Ups       CMS       CMS       CMS  10^6 ltr     Kw-hr    Low   High
  ---------------------------------------------------------------------------------------------------------
  MTPS                    66.96           0      0.00      0.01      0.01     0.004      0.00    0.0  100.0
  PBPS1                   66.96           0      0.00      0.00      0.00     0.000      0.00    0.0  100.0
  PBPS2                    0.00           0      0.00      0.00      0.00     0.000      0.00    0.0    0.0
  BDPS                    66.96           0      0.00      0.00      0.00     0.000      0.00    0.0  100.0
  KGPS                     0.00           0      0.00      0.00      0.00     0.000      0.00    0.0    0.0
  CLPS                    66.96           0      0.00      0.00      0.00     0.000      0.00    0.0  100.0
  TPPS                    59.94           1      0.00      0.00      0.00     0.000      0.00    0.0  100.0
  BGPS                     0.00           0      0.00      0.00      0.00     0.000      0.00    0.0    0.0
  DBPS                    66.96           0      0.00      0.00      0.00     0.001      0.00    0.0  100.0
  BPPS                    66.96           0      0.00      0.00      0.00     0.000      0.00    0.0  100.0
  UDPS                    14.25           1      0.00      0.00      0.00     0.000      0.00    0.0  100.0
  PDPS                     0.00           0      0.00      0.00      0.00     0.000      0.00    0.0    0.0
  CGPS                    66.96           0      0.00      0.00      0.00     0.000      0.00    0.0  100.0
  KDPS                    58.45           1      0.00      0.00      0.00     0.000      0.00    0.0  100.0
  DKPS                    66.96           0      0.00      0.00      0.00     0.001      0.01    0.0  100.0
  HPPS                    66.96           0      0.00      0.02      0.02     0.010      0.00    0.0  100.0
  LS2                     66.96           0      0.00      0.01      0.01     0.008      0.00    0.0  100.0
  CBPS1                   55.47           1      0.00      0.00      0.00     0.000      0.00    0.0  100.0
  CBPS2                   66.96           0      0.00      0.00      0.00     0.000      0.00    0.0  100.0
  LS3                     36.37           1      0.00      0.00      0.00     0.000      0.00    0.0  100.0
  LS5                     66.96           0      0.00      0.01      0.01     0.004      0.00    0.0  100.0
  NPPS                     0.00           0      0.00      0.00      0.00     0.000      0.00    0.0    0.0
  BLPS                     0.00           0      0.00      0.00      0.00     0.000      0.00    0.0    0.0
  KMPS                    66.96           0      0.00      0.00      0.00     0.000      0.00    0.0  100.0
  PS2                      0.00           0      0.00      0.00      0.00     0.000      0.00    0.0    0.0
  NMPS                    64.43           1      0.00      0.00      0.00     0.000      0.00    0.0  100.0
  CBPS                     0.00           0      0.00      0.00      0.00     0.000      0.00    0.0    0.0
  DLPS                     0.00           0      0.00      0.00      0.00     0.000      0.00    0.0    0.0
  MPPS1                   66.96           0      0.00      0.01      0.01     0.004      0.00    0.0  100.0
  MPPS2                    0.00           0      0.00      0.00      0.00     0.000      0.00    0.0    0.0
  SAPS                    51.01           1      0.00      0.00      0.00     0.000      0.00    0.0  100.0
  LS1A                    58.45           1      0.00      0.00      0.00     0.000      0.00    0.0  100.0
  LS2A                    66.96           0      0.00      0.01      0.01     0.004      0.00    0.0  100.0
  LS1B                    66.96           0      0.00      0.00      0.00     0.002      0.00    0.0  100.0
  LS2B                    66.96           0      0.00      0.01      0.01     0.007      0.00    0.0  100.0
  PS1                     66.96           0      0.00      0.00      0.00     0.001      0.00    0.0  100.0
  

  Analysis begun on:  Fri Nov 29 09:58:31 2019
  Analysis ended on:  Fri Nov 29 09:58:31 2019
  Total elapsed time: < 1 sec