
  EPA STORM WATER MANAGEMENT MODEL - VERSION 5.1 (Build 5.1.013)
  --------------------------------------------------------------

  Scenario Run :  BASE 
  
  WARNING 02: maximum depth increased for Node NODE123
  
  *************
  Element Count
  *************
  Number of rain gages ...... 2
  Number of subcatchments ... 66
  Number of nodes ........... 102
  Number of links ........... 100
  Number of pollutants ...... 0
  Number of land uses ....... 0
  
  
  ****************
  Raingage Summary
  ****************
                                                      Data       Recording
  Name                 Data Source                    Type       Interval 
  ------------------------------------------------------------------------
  10YR_24HR            10YR_24HR_SERIES               INTENSITY   60 min.
  10YR_2HR_STORM       TS1                            INTENSITY    5 min.
  
  
  ********************
  Subcatchment Summary
  ********************
  Name                       Area     Width   %Imperv    %Slope Rain Gage            Outlet              
  -----------------------------------------------------------------------------------------------------------
  AR-1                       8.65    380.00     30.00    0.1000 10YR_2HR_STORM       NODE122             
  AR-2                      12.67    500.00     25.00    0.1000 10YR_2HR_STORM       NODE122             
  AR-3                       4.05    250.00     15.00    0.1000 10YR_2HR_STORM       J1                  
  AR-4                       1.06    230.00     40.00    0.1000 10YR_2HR_STORM       NODE122             
  AR-5                       2.98    300.00     20.00    0.1000 10YR_2HR_STORM       NODE123             
  AR-6                       0.80    170.00     30.00    0.1000 10YR_2HR_STORM       NODE104             
  HYATT-1                    3.26    150.00     90.00    0.1000 10YR_2HR_STORM       NODE107             
  HYATT-2                    2.21    150.00     90.00    0.1000 10YR_2HR_STORM       NODE110             
  SUBCATCH-1                 0.58    117.54     85.00    0.1000 10YR_2HR_STORM       3                   
  SUBCATCH-10                0.29     58.48     85.00    0.1000 10YR_2HR_STORM       7                   
  SUBCATCH-11                0.37     74.99     85.00    0.1000 10YR_2HR_STORM       8                   
  SUBCATCH-12                0.41     82.49     85.00    0.1000 10YR_2HR_STORM       NODE101             
  SUBCATCH-13                0.61    123.76     85.00    0.1000 10YR_2HR_STORM       62                  
  SUBCATCH-14                0.31     58.94     85.00    0.1000 10YR_2HR_STORM       9                   
  SUBCATCH-15                0.47     97.41     85.00    0.1000 10YR_2HR_STORM       10                  
  SUBCATCH-16                0.40     80.59     85.00    0.1000 10YR_2HR_STORM       17                  
  SUBCATCH-17                0.51    103.89     85.00    0.1000 10YR_2HR_STORM       12                  
  SUBCATCH-18                0.64    120.76     85.00    0.1000 10YR_2HR_STORM       86                  
  SUBCATCH-19                0.35     72.65     85.00    0.1000 10YR_2HR_STORM       20                  
  SUBCATCH-2                 0.31     61.68     85.00    0.1000 10YR_2HR_STORM       67                  
  SUBCATCH-20                0.17     35.80     85.00    0.1000 10YR_2HR_STORM       23                  
  SUBCATCH-21                0.35     69.30     85.00    0.1000 10YR_2HR_STORM       45                  
  SUBCATCH-22                0.51     99.52     85.00    0.1000 10YR_2HR_STORM       47                  
  SUBCATCH-23                0.51    102.98     85.00    0.1000 10YR_2HR_STORM       49                  
  SUBCATCH-24                0.26     52.10     85.00    0.1000 10YR_2HR_STORM       NODE100             
  SUBCATCH-25                0.40     74.11     85.00    0.1000 10YR_2HR_STORM       52                  
  SUBCATCH-26                0.96    190.24     85.00    0.1000 10YR_2HR_STORM       74                  
  SUBCATCH-27                0.59    116.55     85.00    0.1000 10YR_2HR_STORM       72                  
  SUBCATCH-28                0.48     98.89     85.00    0.1000 10YR_2HR_STORM       65                  
  SUBCATCH-29                0.42     83.65     85.00    0.1000 10YR_2HR_STORM       64                  
  SUBCATCH-3                 0.42     85.76     85.00    0.1000 10YR_2HR_STORM       NODE94              
  SUBCATCH-30                0.61    115.00     85.00    0.1000 10YR_2HR_STORM       38                  
  SUBCATCH-31                0.56    106.44     85.00    0.1000 10YR_2HR_STORM       33                  
  SUBCATCH-32                0.60    119.75     85.00    0.1000 10YR_2HR_STORM       34                  
  SUBCATCH-33                0.20     39.52     85.00    0.1000 10YR_2HR_STORM       23                  
  SUBCATCH-34                0.16     35.68     85.00    0.1000 10YR_2HR_STORM       22                  
  SUBCATCH-35                0.42     85.47     85.00    0.1000 10YR_2HR_STORM       60                  
  SUBCATCH-36                0.39     75.57     85.00    0.1000 10YR_2HR_STORM       25                  
  SUBCATCH-37                0.44     92.24     85.00    0.1000 10YR_2HR_STORM       32                  
  SUBCATCH-38                0.39     82.79     85.00    0.1000 10YR_2HR_STORM       56                  
  SUBCATCH-39                0.45     85.76     85.00    0.1000 10YR_2HR_STORM       57                  
  SUBCATCH-4                 0.34     62.40     85.00    0.1000 10YR_2HR_STORM       88                  
  SUBCATCH-40                0.44     86.68     85.00    0.1000 10YR_2HR_STORM       69                  
  SUBCATCH-41                0.38     78.97     85.00    0.1000 10YR_2HR_STORM       63                  
  SUBCATCH-42                0.38     78.25     85.00    0.1000 10YR_2HR_STORM       64                  
  SUBCATCH-43                0.41     83.14     85.00    0.1000 10YR_2HR_STORM       NODE103             
  SUBCATCH-44                0.36     72.63     85.00    0.1000 10YR_2HR_STORM       42                  
  SUBCATCH-45                0.11     19.15     85.00    0.1000 10YR_2HR_STORM       43                  
  SUBCATCH-46                0.60    124.08     85.00    0.1000 10YR_2HR_STORM       59                  
  SUBCATCH-47                0.07     12.21     85.00    0.1000 10YR_2HR_STORM       44                  
  SUBCATCH-48                1.63    200.00     85.00    0.1000 10YR_2HR_STORM       32                  
  SUBCATCH-49                8.42    350.00     80.00    0.1000 10YR_2HR_STORM       55                  
  SUBCATCH-5                 0.31     63.23     85.00    0.1000 10YR_2HR_STORM       29                  
  SUBCATCH-50                5.49    300.00     85.00    0.1000 10YR_2HR_STORM       54                  
  SUBCATCH-51               41.52    900.00     85.00    0.1000 10YR_2HR_STORM       53                  
  SUBCATCH-52                0.97    194.76     85.00    0.1000 10YR_2HR_STORM       NODE116             
  SUBCATCH-53                0.65    129.31     85.00    0.1000 10YR_2HR_STORM       NODE117             
  SUBCATCH-54                0.85    169.26     85.00    0.1000 10YR_2HR_STORM       NODE119             
  SUBCATCH-55                0.44     88.23     85.00    0.1000 10YR_2HR_STORM       NODE102             
  SUBCATCH-56                0.47     90.13     85.00    0.1000 10YR_2HR_STORM       27                  
  SUBCATCH-57                0.37     74.29     85.00    0.1000 10YR_2HR_STORM       25                  
  SUBCATCH-58                0.55    111.91     85.00    0.1000 10YR_2HR_STORM       15                  
  SUBCATCH-6                 0.37     72.26     85.00    0.1000 10YR_2HR_STORM       NODE88              
  SUBCATCH-7                 1.13    221.72     85.00    0.1000 10YR_2HR_STORM       16                  
  SUBCATCH-8                 0.73    152.00     85.00    0.1000 10YR_2HR_STORM       51                  
  SUBCATCH-9                 0.26     48.86     85.00    0.1000 10YR_2HR_STORM       6                   
  
  
  ************
  Node Summary
  ************
                                           Invert      Max.    Ponded    External
  Name                 Type                 Elev.     Depth      Area    Inflow  
  -------------------------------------------------------------------------------
  1                    JUNCTION             -0.45      1.96       0.0
  10                   JUNCTION             -0.59      2.38       0.0
  12                   JUNCTION             -0.69      2.88       0.0
  13                   JUNCTION             -0.71      2.98       0.0
  14                   JUNCTION             -0.54      2.17       0.0
  15                   JUNCTION             -0.48      2.23       0.0
  16                   JUNCTION             -0.43      2.11       0.0
  17                   JUNCTION             -0.63      2.29       0.0
  18                   JUNCTION             -0.66      2.98       0.0
  19                   JUNCTION             -0.79      2.69       0.0
  2                    JUNCTION             -0.41      1.92       0.0
  20                   JUNCTION             -0.62      2.58       0.0
  21                   JUNCTION             -0.67      2.84       0.0
  22                   JUNCTION             -0.57      2.23       0.0
  23                   JUNCTION             -0.60      2.43       0.0
  24                   JUNCTION             -0.54      2.25       0.0
  25                   JUNCTION             -0.51      2.33       0.0
  27                   JUNCTION             -0.47      1.90       0.0
  29                   JUNCTION             -0.45      2.19       0.0
  3                    JUNCTION             -0.39      2.01       0.0
  30                   JUNCTION             -0.49      2.55       0.0
  31                   JUNCTION             -0.43      2.36       0.0
  32                   JUNCTION             -0.35      2.03       0.0
  33                   JUNCTION             -0.54      2.36       0.0
  34                   JUNCTION             -0.57      2.48       0.0
  35                   JUNCTION             -0.49      1.98       0.0
  38                   JUNCTION             -0.49      2.18       0.0
  39                   JUNCTION             -0.35      2.82       0.0
  4                    JUNCTION             -0.39      1.84       0.0
  40                   JUNCTION             -0.28      2.27       0.0
  41                   JUNCTION             -0.18      2.00       0.0
  42                   JUNCTION             -0.27      1.99       0.0
  43                   JUNCTION             -0.24      2.02       0.0
  44                   JUNCTION             -0.20      2.06       0.0
  45                   JUNCTION             -0.25      1.51       0.0
  46                   JUNCTION             -0.28      1.88       0.0
  47                   JUNCTION             -0.33      2.03       0.0
  48                   JUNCTION             -0.35      2.00       0.0
  49                   JUNCTION             -0.39      1.83       0.0
  51                   JUNCTION             -0.45      1.94       0.0
  52                   JUNCTION             -0.41      2.06       0.0
  53                   JUNCTION             -0.21      1.93       0.0
  54                   JUNCTION             -0.30      2.63       0.0
  55                   JUNCTION             -0.07      1.58       0.0
  56                   JUNCTION             -0.43      1.92       0.0
  57                   JUNCTION             -0.41      1.98       0.0
  58                   JUNCTION             -0.39      1.84       0.0
  59                   JUNCTION             -0.35      1.82       0.0
  6                    JUNCTION             -0.49      2.11       0.0
  60                   JUNCTION             -0.32      1.70       0.0
  62                   JUNCTION             -0.44      1.97       0.0
  63                   JUNCTION             -0.33      1.73       0.0
  64                   JUNCTION             -0.30      1.78       0.0
  65                   JUNCTION             -0.30      1.66       0.0
  67                   JUNCTION             -0.33      1.74       0.0
  69                   JUNCTION             -0.38      1.84       0.0
  7                    JUNCTION             -0.51      2.09       0.0
  70                   JUNCTION             -0.36      1.74       0.0
  72                   JUNCTION             -0.27      1.71       0.0
  73                   JUNCTION             -0.23      1.79       0.0
  74                   JUNCTION             -0.21      1.63       0.0
  8                    JUNCTION             -0.53      1.95       0.0
  84                   JUNCTION             -0.19      2.07       0.0
  86                   JUNCTION             -0.53      2.26       0.0
  88                   JUNCTION             -0.42      2.07       0.0
  89                   JUNCTION             -0.26      2.04       0.0
  9                    JUNCTION             -0.56      2.42       0.0
  J1                   JUNCTION              0.37      1.97       0.0
  J2                   JUNCTION              0.13      1.31       0.0
  J3                   JUNCTION              0.09      1.61       0.0
  J4                   JUNCTION              0.08      2.19       0.0
  NODE100              JUNCTION             -0.31      1.72       0.0
  NODE101              JUNCTION             -0.36      1.77       0.0
  NODE102              JUNCTION             -0.44      2.19       0.0
  NODE103              JUNCTION             -0.30      1.90       0.0
  NODE104              JUNCTION              0.06      2.19       0.0
  NODE105              JUNCTION             -0.10      2.59       0.0
  NODE106              JUNCTION             -0.13      2.50       0.0
  NODE107              JUNCTION             -0.07      1.90       0.0
  NODE108              JUNCTION             -0.18      1.85       0.0
  NODE109              JUNCTION              0.09      1.70       0.0
  NODE110              JUNCTION              0.18      2.10       0.0
  NODE111              JUNCTION             -0.82      2.32       0.0
  NODE113              JUNCTION             -0.84      2.92       0.0
  NODE115              JUNCTION              0.32      0.93       0.0
  NODE116              JUNCTION              0.30      1.00       0.0
  NODE117              JUNCTION              0.27      0.93       0.0
  NODE118              JUNCTION              0.18      1.69       0.0
  NODE119              JUNCTION              0.14      2.08       0.0
  NODE122              JUNCTION              0.15      1.10       0.0
  NODE123              JUNCTION              0.01      1.00       0.0
  NODE124              JUNCTION             -0.12      2.16       0.0
  NODE87               JUNCTION             -0.23      1.99       0.0
  NODE88               JUNCTION             -0.63      2.27       0.0
  NODE92               JUNCTION             -0.28      1.62       0.0
  NODE94               JUNCTION             -0.36      1.96       0.0
  NODE95               JUNCTION             -0.40      1.84       0.0
  NODE96               JUNCTION             -0.40      2.08       0.0
  NODE97               JUNCTION             -0.19      1.96       0.0
  NODE99               JUNCTION             -0.28      1.68       0.0
  NODE114              OUTFALL              -0.85      1.50       0.0
  NODE120              OUTFALL               0.28      0.90       0.0
  
  
  ************
  Link Summary
  ************
  Name             From Node        To Node          Type            Length    %Slope Roughness
  ---------------------------------------------------------------------------------------------
  10.1             10               17               CONDUIT           84.1    0.0511    0.0130
  11               17               18               CONDUIT           55.9    0.0519    0.0130
  12.1             18               12               CONDUIT           50.1    0.0519    0.0130
  13.1             12               13               CONDUIT           50.4    0.0496    0.0130
  14.1             6                7                CONDUIT           36.9    0.0515    0.0130
  15.1             7                8                CONDUIT           43.9    0.0502    0.0130
  16.1             8                9                CONDUIT           67.2    0.0506    0.0130
  17.1             13               19               CONDUIT          153.0    0.0510    0.0130
  18.1             24               22               CONDUIT           53.0    0.0509    0.0130
  19.1             22               23               CONDUIT           62.2    0.0498    0.0130
  2.1              3                2                CONDUIT           58.0    0.0517    0.0130
  20.1             23               20               CONDUIT           41.0    0.0512    0.0130
  21.1             20               21               CONDUIT           84.0    0.0512    0.0300
  22.1             21               13               CONDUIT           93.0    0.0505    0.0300
  23.1             25               24               CONDUIT           67.0    0.0507    0.0130
  24.1             27               25               CONDUIT           75.0    0.0520    0.0130
  25.1             NODE102          27               CONDUIT           64.0    0.0515    0.0130
  26.1             88               29               CONDUIT           60.0    0.0550    0.0130
  27.1             29               15               CONDUIT           41.2    0.0510    0.0130
  29.1             89               32               CONDUIT          187.5    0.0507    0.0130
  3.1              NODE101          3                CONDUIT           43.9    0.0524    0.0130
  30.1             32               31               CONDUIT           46.1    0.0520    0.0130
  31.1             31               30               CONDUIT          121.0    0.0496    0.0300
  32.1             30               20               CONDUIT          123.0    0.0512    0.0300
  33.1             38               33               CONDUIT           96.0    0.0500    0.0130
  34.1             33               34               CONDUIT           74.0    0.0500    0.0130
  35.1             34               23               CONDUIT           53.0    0.0509    0.0130
  36.1             35               25               CONDUIT           43.7    0.0526    0.0130
  37.1             41               40               CONDUIT          200.0    0.0500    0.0130
  38.1             40               39               CONDUIT          140.1    0.0507    0.0130
  39.1             39               31               CONDUIT          150.3    0.0506    0.0300
  4.1              NODE94           4                CONDUIT           41.0    0.0512    0.0130
  40.1             51               6                CONDUIT           68.7    0.0495    0.0110
  41.1             43               42               CONDUIT           60.0    0.0500    0.0130
  42.1             44               43               CONDUIT           70.0    0.0514    0.0130
  43.1             NODE87           45               CONDUIT           37.2    0.0511    0.0130
  44.1             45               46               CONDUIT           61.6    0.0519    0.0130
  45.1             46               47               CONDUIT           90.5    0.0497    0.0130
  46.1             47               48               CONDUIT           48.4    0.0516    0.0130
  47.1             48               49               CONDUIT           74.4    0.0497    0.0130
  48.1             49               52               CONDUIT           50.5    0.0495    0.0130
  49.1             52               51               CONDUIT           76.8    0.0521    0.0130
  5.1              NODE96           6                CONDUIT           35.8    0.0502    0.0130
  50               53               54               CONDUIT          167.3    0.0502    0.0300
  51.1             54               39               CONDUIT          107.0    0.0505    0.0300
  52.1             55               41               CONDUIT          218.2    0.0509    0.0130
  53.1             58               57               CONDUIT           41.6    0.0505    0.0130
  54.1             59               58               CONDUIT           81.2    0.0517    0.0130
  55.1             60               59               CONDUIT           55.8    0.0502    0.0130
  56.1             NODE100          60               CONDUIT           20.6    0.0534    0.0130
  57.1             67               4                CONDUIT           99.0    0.0515    0.0130
  58.1             56               1                CONDUIT           39.7    0.0504    0.0130
  59.1             1                35               CONDUIT           78.4    0.0497    0.0130
  6.1              16               15               CONDUIT           98.4    0.0508    0.0130
  60.1             2                62               CONDUIT           44.6    0.0516    0.0130
  61.1             64               63               CONDUIT           52.0    0.0519    0.0130
  62.1             NODE99           64               CONDUIT           43.8    0.0502    0.0130
  63.1             NODE92           65               CONDUIT           34.9    0.0515    0.0130
  64.1             NODE95           52               CONDUIT           37.3    0.0536    0.0130
  65.1             65               67               CONDUIT           75.2    0.0506    0.0130
  66.1             70               69               CONDUIT           50.0    0.0500    0.0130
  68               63               70               CONDUIT           60.1    0.0516    0.0130
  69.1             73               72               CONDUIT           68.6    0.0495    0.0130
  7.1              NODE88           15               CONDUIT           34.5    0.0522    0.0130
  70.1             74               73               CONDUIT           51.9    0.0521    0.0130
  72.1             NODE97           74               CONDUIT           35.8    0.0531    0.0130
  73.1             72               65               CONDUIT           51.0    0.0549    0.0130
  78.1             42               NODE103          CONDUIT           61.0    0.0508    0.0130
  79.1             84               44               CONDUIT           20.0    0.0549    0.0130
  8.1              14               9                CONDUIT           47.7    0.0524    0.0130
  83.1             15               22               CONDUIT           72.1    0.0596    0.0130
  85.1             86               23               CONDUIT          135.4    0.0502    0.0130
  86.1             4                88               CONDUIT           71.4    0.0504    0.0130
  9.1              9                10               CONDUIT           52.4    0.0496    0.0130
  C1               J1               NODE120          CONDUIT          127.5    0.0706    0.0130
  C2               NODE119          J2               CONDUIT           50.2    0.0199    0.0130
  C3               J2               J3               CONDUIT          127.8    0.0313    0.0130
  C4               J3               J4               CONDUIT           31.5    0.0318    0.0130
  C5               J4               NODE104          CONDUIT           73.9    0.0271    0.0300
  LINK100          NODE104          NODE105          CONDUIT          121.1    0.0496    0.0130
  LINK101          NODE105          NODE106          CONDUIT           26.2    0.1143    0.0130
  LINK102          NODE106          NODE107          CONDUIT           51.9    0.1350    0.0130
  LINK103          NODE107          NODE108          CONDUIT           26.9    0.4088    0.0130
  LINK104          NODE108          19               CONDUIT           51.2    0.5076    0.0130
  LINK105          NODE110          NODE109          CONDUIT          101.9    0.1080    0.0130
  LINK106          NODE109          NODE105          CONDUIT           12.2    1.5563    0.0130
  LINK107          19               NODE111          CONDUIT           51.0    0.0510    0.0300
  LINK108          NODE111          NODE113          CONDUIT           41.0    0.0561    0.0300
  LINK110          NODE113          NODE114          CONDUIT           20.0    0.0500    0.0300
  LINK111          NODE115          NODE116          CONDUIT           37.4    0.0535    0.0130
  LINK112          NODE116          NODE117          CONDUIT           78.4    0.0383    0.0130
  LINK113          NODE117          NODE118          CONDUIT          202.2    0.0445    0.0130
  LINK114          NODE118          NODE119          CONDUIT          139.6    0.0287    0.0130
  LINK118          NODE122          NODE123          CONDUIT          288.7    0.0502    0.0300
  LINK119          NODE123          NODE124          CONDUIT          255.6    0.0505    0.0300
  LINK120          NODE124          NODE104          CONDUIT          113.2   -0.1616    0.0300
  LINK84           69               58               CONDUIT           20.0    0.0500    0.0130
  LINK85           57               56               CONDUIT           31.7    0.0474    0.0130
  LINK96           NODE103          63               CONDUIT           43.0    0.0535    0.0130
  LINK98           62               1                CONDUIT           20.5    0.0489    0.0130
  
  
  *********************
  Cross Section Summary
  *********************
                                        Full     Full     Hyd.     Max.   No. of     Full
  Conduit          Shape               Depth     Area     Rad.    Width  Barrels     Flow
  ---------------------------------------------------------------------------------------
  10.1             CIRCULAR             0.90     0.64     0.23     0.90        1   409.25
  11               CIRCULAR             0.90     0.64     0.23     0.90        1   412.36
  12.1             CIRCULAR             0.90     0.64     0.23     0.90        1   412.47
  13.1             CIRCULAR             0.90     0.64     0.23     0.90        1   403.37
  14.1             CIRCULAR             0.75     0.44     0.19     0.75        1   252.60
  15.1             CIRCULAR             0.75     0.44     0.19     0.75        1   249.35
  16.1             CIRCULAR             0.75     0.44     0.19     0.75        1   250.43
  17.1             CIRCULAR             1.20     1.13     0.30     1.20        2   880.34
  18.1             CIRCULAR             1.05     0.87     0.26     1.05        1   616.38
  19.1             CIRCULAR             1.20     1.13     0.30     1.20        1   870.43
  2.1              CIRCULAR             0.60     0.28     0.15     0.60        1   139.65
  20.1             CIRCULAR             1.20     1.13     0.30     1.20        1   882.40
  21.1             TRAPEZOIDAL          1.50     6.75     0.82     7.50        1  4468.62
  22.1             TRAPEZOIDAL          1.50     6.75     0.82     7.50        1  4440.04
  23.1             CIRCULAR             1.05     0.87     0.26     1.05        1   615.19
  24.1             CIRCULAR             0.60     0.28     0.15     0.60        1   140.02
  25.1             CIRCULAR             0.60     0.28     0.15     0.60        1   139.40
  26.1             CIRCULAR             0.75     0.44     0.19     0.75        1   261.10
  27.1             CIRCULAR             0.75     0.44     0.19     0.75        1   251.42
  29.1             CIRCULAR             0.60     0.28     0.15     0.60        1   138.23
  3.1              CIRCULAR             0.60     0.28     0.15     0.60        1   140.62
  30.1             CIRCULAR             0.68     0.36     0.17     0.68        1   191.74
  31.1             TRAPEZOIDAL          1.20     2.88     0.63     3.60        1  1565.94
  32.1             TRAPEZOIDAL          1.20     2.88     0.63     3.60        1  1591.51
  33.1             CIRCULAR             0.60     0.28     0.15     0.60        1   137.31
  34.1             CIRCULAR             0.60     0.28     0.15     0.60        1   137.31
  35.1             CIRCULAR             0.60     0.28     0.15     0.60        1   138.59
  36.1             CIRCULAR             0.90     0.64     0.23     0.90        1   415.24
  37.1             CIRCULAR             1.05     0.87     0.26     1.05        1   610.58
  38.1             CIRCULAR             1.05     0.87     0.26     1.05        1   614.79
  39.1             TRAPEZOIDAL          1.20     2.88     0.63     3.60        1  1581.16
  4.1              CIRCULAR             0.60     0.28     0.15     0.60        1   138.90
  40.1             CIRCULAR             0.75     0.44     0.19     0.75        1   292.73
  41.1             CIRCULAR             0.60     0.28     0.15     0.60        1   137.31
  42.1             CIRCULAR             0.60     0.28     0.15     0.60        1   139.24
  43.1             CIRCULAR             0.60     0.28     0.15     0.60        1   138.81
  44.1             CIRCULAR             0.60     0.28     0.15     0.60        1   139.91
  45.1             CIRCULAR             0.60     0.28     0.15     0.60        1   136.92
  46.1             CIRCULAR             0.60     0.28     0.15     0.60        1   139.48
  47.1             CIRCULAR             0.60     0.28     0.15     0.60        1   136.90
  48.1             CIRCULAR             0.60     0.28     0.15     0.60        1   136.65
  49.1             CIRCULAR             0.75     0.44     0.19     0.75        1   254.08
  5.1              CIRCULAR             0.60     0.28     0.15     0.60        1   137.63
  50               TRAPEZOIDAL          1.20     2.88     0.63     3.60        1  1575.73
  51.1             TRAPEZOIDAL          1.20     2.88     0.63     3.60        1  1579.78
  52.1             CIRCULAR             1.05     0.87     0.26     1.05        1   615.90
  53.1             CIRCULAR             0.75     0.44     0.19     0.75        1   250.24
  54.1             CIRCULAR             0.60     0.28     0.15     0.60        1   139.64
  55.1             CIRCULAR             0.60     0.28     0.15     0.60        1   137.60
  56.1             CIRCULAR             0.60     0.28     0.15     0.60        1   141.93
  57.1             CIRCULAR             0.68     0.36     0.17     0.68        1   190.80
  58.1             CIRCULAR             0.90     0.64     0.23     0.90        1   406.30
  59.1             CIRCULAR             0.90     0.64     0.23     0.90        1   403.71
  6.1              CIRCULAR             0.60     0.28     0.15     0.60        1   138.41
  60.1             CIRCULAR             0.60     0.28     0.15     0.60        1   139.46
  61.1             CIRCULAR             0.60     0.28     0.15     0.60        1   139.92
  62.1             CIRCULAR             0.60     0.28     0.15     0.60        1   137.57
  63.1             CIRCULAR             0.60     0.28     0.15     0.60        1   139.39
  64.1             CIRCULAR             0.60     0.28     0.15     0.60        1   142.15
  65.1             CIRCULAR             0.60     0.28     0.15     0.60        1   138.06
  66.1             CIRCULAR             0.60     0.28     0.15     0.60        1   137.31
  68               CIRCULAR             0.60     0.28     0.15     0.60        1   139.42
  69.1             CIRCULAR             0.60     0.28     0.15     0.60        1   136.68
  7.1              CIRCULAR             0.60     0.28     0.15     0.60        1   140.30
  70.1             CIRCULAR             0.60     0.28     0.15     0.60        1   140.11
  72.1             CIRCULAR             0.60     0.28     0.15     0.60        1   141.52
  73.1             CIRCULAR             0.60     0.28     0.15     0.60        1   143.88
  78.1             CIRCULAR             0.60     0.28     0.15     0.60        1   138.39
  79.1             CIRCULAR             0.60     0.28     0.15     0.60        1   143.94
  8.1              CIRCULAR             0.60     0.28     0.15     0.60        1   140.56
  83.1             CIRCULAR             0.90     0.64     0.23     0.90        1   442.10
  85.1             CIRCULAR             0.60     0.28     0.15     0.60        1   137.62
  86.1             CIRCULAR             0.68     0.36     0.17     0.68        1   188.73
  9.1              CIRCULAR             0.90     0.64     0.23     0.90        1   403.16
  C1               CIRCULAR             0.90     0.64     0.23     0.90        1   480.96
  C2               CIRCULAR             0.68     0.36     0.17     0.68        1   118.65
  C3               CIRCULAR             0.68     0.36     0.17     0.68        1   148.72
  C4               CIRCULAR             0.68     0.36     0.17     0.68        1   149.88
  C5               TRAPEZOIDAL          1.00     2.00     0.52     3.00        1   711.63
  LINK100          CIRCULAR             0.90     0.64     0.23     0.90        1   403.01
  LINK101          CIRCULAR             0.90     0.64     0.23     0.90        1   612.03
  LINK102          CIRCULAR             0.90     0.64     0.23     0.90        1   665.14
  LINK103          CIRCULAR             0.90     0.64     0.23     0.90        1  1157.50
  LINK104          CIRCULAR             0.90     0.64     0.23     0.90        1  1289.88
  LINK105          CIRCULAR             0.60     0.28     0.15     0.60        1   201.79
  LINK106          CIRCULAR             0.60     0.28     0.15     0.60        1   766.03
  LINK107          TRAPEZOIDAL          1.50     6.75     0.82     7.50        1  4459.44
  LINK108          TRAPEZOIDAL          1.50     6.75     0.82     7.50        1  4677.90
  LINK110          TRAPEZOIDAL          1.50     6.75     0.82     7.50        1  4416.36
  LINK111          CIRCULAR             0.60     0.28     0.15     0.60        1   142.07
  LINK112          CIRCULAR             0.60     0.28     0.15     0.60        1   120.15
  LINK113          CIRCULAR             0.60     0.28     0.15     0.60        1   129.54
  LINK114          CIRCULAR             0.60     0.28     0.15     0.60        1   103.95
  LINK118          TRAPEZOIDAL          1.00     3.00     0.59     4.50        1  1572.20
  LINK119          TRAPEZOIDAL          1.00     3.00     0.59     4.50        1  1576.07
  LINK120          TRAPEZOIDAL          1.00     3.00     0.59     4.50        1  2820.48
  LINK84           CIRCULAR             0.68     0.36     0.17     0.68        1   187.97
  LINK85           CIRCULAR             0.75     0.44     0.19     0.75        1   242.30
  LINK96           CIRCULAR             0.60     0.28     0.15     0.60        1   142.01
  LINK98           CIRCULAR             0.60     0.28     0.15     0.60        1   135.75
  
  
  
  *********************************************************
  NOTE: The summary statistics displayed in this report are
  based on results found at every computational time step,  
  not just on results from each reporting time step.
  *********************************************************
  
  ****************
  Analysis Options
  ****************
  Flow Units ............... LPS
  Process Models:
    Rainfall/Runoff ........ YES
    RDII ................... NO
    Snowmelt ............... NO
    Groundwater ............ NO
    Flow Routing ........... YES
    Ponding Allowed ........ NO
    Water Quality .......... NO
  Infiltration Method ...... HORTON
  Flow Routing Method ...... DYNWAVE
  Surcharge Method ......... EXTRAN
  Starting Date ............ 01/01/2222 00:00:00
  Ending Date .............. 01/02/2222 00:00:00
  Antecedent Dry Days ...... 0.0
  Report Time Step ......... 00:01:00
  Wet Time Step ............ 00:05:00
  Dry Time Step ............ 01:00:00
  Routing Time Step ........ 1.00 sec
  Variable Time Step ....... YES
  Maximum Trials ........... 8
  Number of Threads ........ 1
  Head Tolerance ........... 0.001524 m
  
  
  **************************        Volume         Depth
  Runoff Quantity Continuity     hectare-m            mm
  **************************     ---------       -------
  Total Precipitation ......         0.000         0.000
  Evaporation Loss .........         0.000         0.000
  Infiltration Loss ........         0.000         0.000
  Surface Runoff ...........         0.000         0.000
  Final Storage ............         0.000         0.000
  Continuity Error (%) .....         0.000
  
  
  **************************        Volume        Volume
  Flow Routing Continuity        hectare-m      10^6 ltr
  **************************     ---------     ---------
  Dry Weather Inflow .......         0.000         0.000
  Wet Weather Inflow .......         0.000         0.000
  Groundwater Inflow .......         0.000         0.000
  RDII Inflow ..............         0.000         0.000
  External Inflow ..........         0.000         0.000
  External Outflow .........         0.000         0.000
  Flooding Loss ............         0.000         0.000
  Evaporation Loss .........         0.000         0.000
  Exfiltration Loss ........         0.000         0.000
  Initial Stored Volume ....         0.000         0.000
  Final Stored Volume ......         0.000         0.000
  Continuity Error (%) .....         0.000
  
  
  ***************************
  Time-Step Critical Elements
  ***************************
  None
  
  
  ********************************
  Highest Flow Instability Indexes
  ********************************
  All links are stable.
  
  
  ***************************
  Subcatchment Runoff Summary
  ***************************
  
  ------------------------------------------------------------------------------------------------------------------------------
                            Total      Total      Total      Total     Imperv       Perv      Total       Total     Peak  Runoff
                           Precip      Runon       Evap      Infil     Runoff     Runoff     Runoff      Runoff   Runoff   Coeff
  Subcatchment                 mm         mm         mm         mm         mm         mm         mm    10^6 ltr      LPS
  ------------------------------------------------------------------------------------------------------------------------------
  AR-1                       0.00       0.00       0.00       0.00       0.00       0.00       0.00        0.00     0.00   0.000
  AR-2                       0.00       0.00       0.00       0.00       0.00       0.00       0.00        0.00     0.00   0.000
  AR-3                       0.00       0.00       0.00       0.00       0.00       0.00       0.00        0.00     0.00   0.000
  AR-4                       0.00       0.00       0.00       0.00       0.00       0.00       0.00        0.00     0.00   0.000
  AR-5                       0.00       0.00       0.00       0.00       0.00       0.00       0.00        0.00     0.00   0.000
  AR-6                       0.00       0.00       0.00       0.00       0.00       0.00       0.00        0.00     0.00   0.000
  HYATT-1                    0.00       0.00       0.00       0.00       0.00       0.00       0.00        0.00     0.00   0.000
  HYATT-2                    0.00       0.00       0.00       0.00       0.00       0.00       0.00        0.00     0.00   0.000
  SUBCATCH-1                 0.00       0.00       0.00       0.00       0.00       0.00       0.00        0.00     0.00   0.000
  SUBCATCH-10                0.00       0.00       0.00       0.00       0.00       0.00       0.00        0.00     0.00   0.000
  SUBCATCH-11                0.00       0.00       0.00       0.00       0.00       0.00       0.00        0.00     0.00   0.000
  SUBCATCH-12                0.00       0.00       0.00       0.00       0.00       0.00       0.00        0.00     0.00   0.000
  SUBCATCH-13                0.00       0.00       0.00       0.00       0.00       0.00       0.00        0.00     0.00   0.000
  SUBCATCH-14                0.00       0.00       0.00       0.00       0.00       0.00       0.00        0.00     0.00   0.000
  SUBCATCH-15                0.00       0.00       0.00       0.00       0.00       0.00       0.00        0.00     0.00   0.000
  SUBCATCH-16                0.00       0.00       0.00       0.00       0.00       0.00       0.00        0.00     0.00   0.000
  SUBCATCH-17                0.00       0.00       0.00       0.00       0.00       0.00       0.00        0.00     0.00   0.000
  SUBCATCH-18                0.00       0.00       0.00       0.00       0.00       0.00       0.00        0.00     0.00   0.000
  SUBCATCH-19                0.00       0.00       0.00       0.00       0.00       0.00       0.00        0.00     0.00   0.000
  SUBCATCH-2                 0.00       0.00       0.00       0.00       0.00       0.00       0.00        0.00     0.00   0.000
  SUBCATCH-20                0.00       0.00       0.00       0.00       0.00       0.00       0.00        0.00     0.00   0.000
  SUBCATCH-21                0.00       0.00       0.00       0.00       0.00       0.00       0.00        0.00     0.00   0.000
  SUBCATCH-22                0.00       0.00       0.00       0.00       0.00       0.00       0.00        0.00     0.00   0.000
  SUBCATCH-23                0.00       0.00       0.00       0.00       0.00       0.00       0.00        0.00     0.00   0.000
  SUBCATCH-24                0.00       0.00       0.00       0.00       0.00       0.00       0.00        0.00     0.00   0.000
  SUBCATCH-25                0.00       0.00       0.00       0.00       0.00       0.00       0.00        0.00     0.00   0.000
  SUBCATCH-26                0.00       0.00       0.00       0.00       0.00       0.00       0.00        0.00     0.00   0.000
  SUBCATCH-27                0.00       0.00       0.00       0.00       0.00       0.00       0.00        0.00     0.00   0.000
  SUBCATCH-28                0.00       0.00       0.00       0.00       0.00       0.00       0.00        0.00     0.00   0.000
  SUBCATCH-29                0.00       0.00       0.00       0.00       0.00       0.00       0.00        0.00     0.00   0.000
  SUBCATCH-3                 0.00       0.00       0.00       0.00       0.00       0.00       0.00        0.00     0.00   0.000
  SUBCATCH-30                0.00       0.00       0.00       0.00       0.00       0.00       0.00        0.00     0.00   0.000
  SUBCATCH-31                0.00       0.00       0.00       0.00       0.00       0.00       0.00        0.00     0.00   0.000
  SUBCATCH-32                0.00       0.00       0.00       0.00       0.00       0.00       0.00        0.00     0.00   0.000
  SUBCATCH-33                0.00       0.00       0.00       0.00       0.00       0.00       0.00        0.00     0.00   0.000
  SUBCATCH-34                0.00       0.00       0.00       0.00       0.00       0.00       0.00        0.00     0.00   0.000
  SUBCATCH-35                0.00       0.00       0.00       0.00       0.00       0.00       0.00        0.00     0.00   0.000
  SUBCATCH-36                0.00       0.00       0.00       0.00       0.00       0.00       0.00        0.00     0.00   0.000
  SUBCATCH-37                0.00       0.00       0.00       0.00       0.00       0.00       0.00        0.00     0.00   0.000
  SUBCATCH-38                0.00       0.00       0.00       0.00       0.00       0.00       0.00        0.00     0.00   0.000
  SUBCATCH-39                0.00       0.00       0.00       0.00       0.00       0.00       0.00        0.00     0.00   0.000
  SUBCATCH-4                 0.00       0.00       0.00       0.00       0.00       0.00       0.00        0.00     0.00   0.000
  SUBCATCH-40                0.00       0.00       0.00       0.00       0.00       0.00       0.00        0.00     0.00   0.000
  SUBCATCH-41                0.00       0.00       0.00       0.00       0.00       0.00       0.00        0.00     0.00   0.000
  SUBCATCH-42                0.00       0.00       0.00       0.00       0.00       0.00       0.00        0.00     0.00   0.000
  SUBCATCH-43                0.00       0.00       0.00       0.00       0.00       0.00       0.00        0.00     0.00   0.000
  SUBCATCH-44                0.00       0.00       0.00       0.00       0.00       0.00       0.00        0.00     0.00   0.000
  SUBCATCH-45                0.00       0.00       0.00       0.00       0.00       0.00       0.00        0.00     0.00   0.000
  SUBCATCH-46                0.00       0.00       0.00       0.00       0.00       0.00       0.00        0.00     0.00   0.000
  SUBCATCH-47                0.00       0.00       0.00       0.00       0.00       0.00       0.00        0.00     0.00   0.000
  SUBCATCH-48                0.00       0.00       0.00       0.00       0.00       0.00       0.00        0.00     0.00   0.000
  SUBCATCH-49                0.00       0.00       0.00       0.00       0.00       0.00       0.00        0.00     0.00   0.000
  SUBCATCH-5                 0.00       0.00       0.00       0.00       0.00       0.00       0.00        0.00     0.00   0.000
  SUBCATCH-50                0.00       0.00       0.00       0.00       0.00       0.00       0.00        0.00     0.00   0.000
  SUBCATCH-51                0.00       0.00       0.00       0.00       0.00       0.00       0.00        0.00     0.00   0.000
  SUBCATCH-52                0.00       0.00       0.00       0.00       0.00       0.00       0.00        0.00     0.00   0.000
  SUBCATCH-53                0.00       0.00       0.00       0.00       0.00       0.00       0.00        0.00     0.00   0.000
  SUBCATCH-54                0.00       0.00       0.00       0.00       0.00       0.00       0.00        0.00     0.00   0.000
  SUBCATCH-55                0.00       0.00       0.00       0.00       0.00       0.00       0.00        0.00     0.00   0.000
  SUBCATCH-56                0.00       0.00       0.00       0.00       0.00       0.00       0.00        0.00     0.00   0.000
  SUBCATCH-57                0.00       0.00       0.00       0.00       0.00       0.00       0.00        0.00     0.00   0.000
  SUBCATCH-58                0.00       0.00       0.00       0.00       0.00       0.00       0.00        0.00     0.00   0.000
  SUBCATCH-6                 0.00       0.00       0.00       0.00       0.00       0.00       0.00        0.00     0.00   0.000
  SUBCATCH-7                 0.00       0.00       0.00       0.00       0.00       0.00       0.00        0.00     0.00   0.000
  SUBCATCH-8                 0.00       0.00       0.00       0.00       0.00       0.00       0.00        0.00     0.00   0.000
  SUBCATCH-9                 0.00       0.00       0.00       0.00       0.00       0.00       0.00        0.00     0.00   0.000
  
  
  ******************
  Node Depth Summary
  ******************
  
  ---------------------------------------------------------------------------------
                                 Average  Maximum  Maximum  Time of Max    Reported
                                   Depth    Depth      HGL   Occurrence   Max Depth
  Node                 Type       Meters   Meters   Meters  days hr:min      Meters
  ---------------------------------------------------------------------------------
  1                    JUNCTION  -nan(ind)     0.00    -0.45     0  00:00        0.00
  10                   JUNCTION  -nan(ind)     0.00    -0.59     0  00:00        0.00
  12                   JUNCTION  -nan(ind)     0.00    -0.69     0  00:00        0.00
  13                   JUNCTION  -nan(ind)     0.00    -0.71     0  00:00        0.00
  14                   JUNCTION  -nan(ind)     0.00    -0.54     0  00:00        0.00
  15                   JUNCTION  -nan(ind)     0.00    -0.48     0  00:00        0.00
  16                   JUNCTION  -nan(ind)     0.00    -0.43     0  00:00        0.00
  17                   JUNCTION  -nan(ind)     0.00    -0.63     0  00:00        0.00
  18                   JUNCTION  -nan(ind)     0.00    -0.66     0  00:00        0.00
  19                   JUNCTION  -nan(ind)     0.00    -0.79     0  00:00        0.00
  2                    JUNCTION  -nan(ind)     0.00    -0.41     0  00:00        0.00
  20                   JUNCTION  -nan(ind)     0.00    -0.62     0  00:00        0.00
  21                   JUNCTION  -nan(ind)     0.00    -0.67     0  00:00        0.00
  22                   JUNCTION  -nan(ind)     0.00    -0.57     0  00:00        0.00
  23                   JUNCTION  -nan(ind)     0.00    -0.60     0  00:00        0.00
  24                   JUNCTION  -nan(ind)     0.00    -0.54     0  00:00        0.00
  25                   JUNCTION  -nan(ind)     0.00    -0.51     0  00:00        0.00
  27                   JUNCTION  -nan(ind)     0.00    -0.47     0  00:00        0.00
  29                   JUNCTION  -nan(ind)     0.00    -0.45     0  00:00        0.00
  3                    JUNCTION  -nan(ind)     0.00    -0.39     0  00:00        0.00
  30                   JUNCTION  -nan(ind)     0.00    -0.49     0  00:00        0.00
  31                   JUNCTION  -nan(ind)     0.00    -0.43     0  00:00        0.00
  32                   JUNCTION  -nan(ind)     0.00    -0.35     0  00:00        0.00
  33                   JUNCTION  -nan(ind)     0.00    -0.54     0  00:00        0.00
  34                   JUNCTION  -nan(ind)     0.00    -0.57     0  00:00        0.00
  35                   JUNCTION  -nan(ind)     0.00    -0.49     0  00:00        0.00
  38                   JUNCTION  -nan(ind)     0.00    -0.49     0  00:00        0.00
  39                   JUNCTION  -nan(ind)     0.00    -0.35     0  00:00        0.00
  4                    JUNCTION  -nan(ind)     0.00    -0.39     0  00:00        0.00
  40                   JUNCTION  -nan(ind)     0.00    -0.28     0  00:00        0.00
  41                   JUNCTION  -nan(ind)     0.00    -0.18     0  00:00        0.00
  42                   JUNCTION  -nan(ind)     0.00    -0.27     0  00:00        0.00
  43                   JUNCTION  -nan(ind)     0.00    -0.24     0  00:00        0.00
  44                   JUNCTION  -nan(ind)     0.00    -0.20     0  00:00        0.00
  45                   JUNCTION  -nan(ind)     0.00    -0.25     0  00:00        0.00
  46                   JUNCTION  -nan(ind)     0.00    -0.28     0  00:00        0.00
  47                   JUNCTION  -nan(ind)     0.00    -0.33     0  00:00        0.00
  48                   JUNCTION  -nan(ind)     0.00    -0.35     0  00:00        0.00
  49                   JUNCTION  -nan(ind)     0.00    -0.39     0  00:00        0.00
  51                   JUNCTION  -nan(ind)     0.00    -0.45     0  00:00        0.00
  52                   JUNCTION  -nan(ind)     0.00    -0.41     0  00:00        0.00
  53                   JUNCTION  -nan(ind)     0.00    -0.21     0  00:00        0.00
  54                   JUNCTION  -nan(ind)     0.00    -0.30     0  00:00        0.00
  55                   JUNCTION  -nan(ind)     0.00    -0.07     0  00:00        0.00
  56                   JUNCTION  -nan(ind)     0.00    -0.43     0  00:00        0.00
  57                   JUNCTION  -nan(ind)     0.00    -0.41     0  00:00        0.00
  58                   JUNCTION  -nan(ind)     0.00    -0.39     0  00:00        0.00
  59                   JUNCTION  -nan(ind)     0.00    -0.35     0  00:00        0.00
  6                    JUNCTION  -nan(ind)     0.00    -0.49     0  00:00        0.00
  60                   JUNCTION  -nan(ind)     0.00    -0.32     0  00:00        0.00
  62                   JUNCTION  -nan(ind)     0.00    -0.44     0  00:00        0.00
  63                   JUNCTION  -nan(ind)     0.00    -0.33     0  00:00        0.00
  64                   JUNCTION  -nan(ind)     0.00    -0.30     0  00:00        0.00
  65                   JUNCTION  -nan(ind)     0.00    -0.30     0  00:00        0.00
  67                   JUNCTION  -nan(ind)     0.00    -0.33     0  00:00        0.00
  69                   JUNCTION  -nan(ind)     0.00    -0.38     0  00:00        0.00
  7                    JUNCTION  -nan(ind)     0.00    -0.51     0  00:00        0.00
  70                   JUNCTION  -nan(ind)     0.00    -0.36     0  00:00        0.00
  72                   JUNCTION  -nan(ind)     0.00    -0.27     0  00:00        0.00
  73                   JUNCTION  -nan(ind)     0.00    -0.23     0  00:00        0.00
  74                   JUNCTION  -nan(ind)     0.00    -0.21     0  00:00        0.00
  8                    JUNCTION  -nan(ind)     0.00    -0.53     0  00:00        0.00
  84                   JUNCTION  -nan(ind)     0.00    -0.19     0  00:00        0.00
  86                   JUNCTION  -nan(ind)     0.00    -0.53     0  00:00        0.00
  88                   JUNCTION  -nan(ind)     0.00    -0.42     0  00:00        0.00
  89                   JUNCTION  -nan(ind)     0.00    -0.26     0  00:00        0.00
  9                    JUNCTION  -nan(ind)     0.00    -0.56     0  00:00        0.00
  J1                   JUNCTION  -nan(ind)     0.00     0.37     0  00:00        0.00
  J2                   JUNCTION  -nan(ind)     0.00     0.13     0  00:00        0.00
  J3                   JUNCTION  -nan(ind)     0.00     0.09     0  00:00        0.00
  J4                   JUNCTION  -nan(ind)     0.00     0.08     0  00:00        0.00
  NODE100              JUNCTION  -nan(ind)     0.00    -0.31     0  00:00        0.00
  NODE101              JUNCTION  -nan(ind)     0.00    -0.36     0  00:00        0.00
  NODE102              JUNCTION  -nan(ind)     0.00    -0.44     0  00:00        0.00
  NODE103              JUNCTION  -nan(ind)     0.00    -0.30     0  00:00        0.00
  NODE104              JUNCTION  -nan(ind)     0.00     0.06     0  00:00        0.00
  NODE105              JUNCTION  -nan(ind)     0.00    -0.10     0  00:00        0.00
  NODE106              JUNCTION  -nan(ind)     0.00    -0.13     0  00:00        0.00
  NODE107              JUNCTION  -nan(ind)     0.00    -0.07     0  00:00        0.00
  NODE108              JUNCTION  -nan(ind)     0.00    -0.18     0  00:00        0.00
  NODE109              JUNCTION  -nan(ind)     0.00     0.09     0  00:00        0.00
  NODE110              JUNCTION  -nan(ind)     0.00     0.18     0  00:00        0.00
  NODE111              JUNCTION  -nan(ind)     0.00    -0.82     0  00:00        0.00
  NODE113              JUNCTION  -nan(ind)     0.00    -0.84     0  00:00        0.00
  NODE115              JUNCTION  -nan(ind)     0.00     0.32     0  00:00        0.00
  NODE116              JUNCTION  -nan(ind)     0.00     0.30     0  00:00        0.00
  NODE117              JUNCTION  -nan(ind)     0.00     0.27     0  00:00        0.00
  NODE118              JUNCTION  -nan(ind)     0.00     0.18     0  00:00        0.00
  NODE119              JUNCTION  -nan(ind)     0.00     0.14     0  00:00        0.00
  NODE122              JUNCTION  -nan(ind)     0.00     0.15     0  00:00        0.00
  NODE123              JUNCTION  -nan(ind)     0.00     0.01     0  00:00        0.00
  NODE124              JUNCTION  -nan(ind)     0.00    -0.12     0  00:00        0.00
  NODE87               JUNCTION  -nan(ind)     0.00    -0.23     0  00:00        0.00
  NODE88               JUNCTION  -nan(ind)     0.00    -0.63     0  00:00        0.00
  NODE92               JUNCTION  -nan(ind)     0.00    -0.28     0  00:00        0.00
  NODE94               JUNCTION  -nan(ind)     0.00    -0.36     0  00:00        0.00
  NODE95               JUNCTION  -nan(ind)     0.00    -0.40     0  00:00        0.00
  NODE96               JUNCTION  -nan(ind)     0.00    -0.40     0  00:00        0.00
  NODE97               JUNCTION  -nan(ind)     0.00    -0.19     0  00:00        0.00
  NODE99               JUNCTION  -nan(ind)     0.00    -0.28     0  00:00        0.00
  NODE114              OUTFALL   -nan(ind)     0.00    -0.85     0  00:00        0.00
  NODE120              OUTFALL   -nan(ind)     0.00     0.28     0  00:00        0.00
  
  
  *******************
  Node Inflow Summary
  *******************
  
  -------------------------------------------------------------------------------------------------
                                  Maximum  Maximum                  Lateral       Total        Flow
                                  Lateral    Total  Time of Max      Inflow      Inflow     Balance
                                   Inflow   Inflow   Occurrence      Volume      Volume       Error
  Node                 Type           LPS      LPS  days hr:min    10^6 ltr    10^6 ltr     Percent
  -------------------------------------------------------------------------------------------------
  1                    JUNCTION      0.00     0.00     0  00:00           0           0       0.000 ltr
  10                   JUNCTION      0.00     0.00     0  00:00           0           0       0.000 ltr
  12                   JUNCTION      0.00     0.00     0  00:00           0           0       0.000 ltr
  13                   JUNCTION      0.00     0.00     0  00:00           0           0       0.000 ltr
  14                   JUNCTION      0.00     0.00     0  00:00           0           0       0.000 ltr
  15                   JUNCTION      0.00     0.00     0  00:00           0           0       0.000 ltr
  16                   JUNCTION      0.00     0.00     0  00:00           0           0       0.000 ltr
  17                   JUNCTION      0.00     0.00     0  00:00           0           0       0.000 ltr
  18                   JUNCTION      0.00     0.00     0  00:00           0           0       0.000 ltr
  19                   JUNCTION      0.00     0.00     0  00:00           0           0       0.000 ltr
  2                    JUNCTION      0.00     0.00     0  00:00           0           0       0.000 ltr
  20                   JUNCTION      0.00     0.00     0  00:00           0           0       0.000 ltr
  21                   JUNCTION      0.00     0.00     0  00:00           0           0       0.000 ltr
  22                   JUNCTION      0.00     0.00     0  00:00           0           0       0.000 ltr
  23                   JUNCTION      0.00     0.00     0  00:00           0           0       0.000 ltr
  24                   JUNCTION      0.00     0.00     0  00:00           0           0       0.000 ltr
  25                   JUNCTION      0.00     0.00     0  00:00           0           0       0.000 ltr
  27                   JUNCTION      0.00     0.00     0  00:00           0           0       0.000 ltr
  29                   JUNCTION      0.00     0.00     0  00:00           0           0       0.000 ltr
  3                    JUNCTION      0.00     0.00     0  00:00           0           0       0.000 ltr
  30                   JUNCTION      0.00     0.00     0  00:00           0           0       0.000 ltr
  31                   JUNCTION      0.00     0.00     0  00:00           0           0       0.000 ltr
  32                   JUNCTION      0.00     0.00     0  00:00           0           0       0.000 ltr
  33                   JUNCTION      0.00     0.00     0  00:00           0           0       0.000 ltr
  34                   JUNCTION      0.00     0.00     0  00:00           0           0       0.000 ltr
  35                   JUNCTION      0.00     0.00     0  00:00           0           0       0.000 ltr
  38                   JUNCTION      0.00     0.00     0  00:00           0           0       0.000 ltr
  39                   JUNCTION      0.00     0.00     0  00:00           0           0       0.000 ltr
  4                    JUNCTION      0.00     0.00     0  00:00           0           0       0.000 ltr
  40                   JUNCTION      0.00     0.00     0  00:00           0           0       0.000 ltr
  41                   JUNCTION      0.00     0.00     0  00:00           0           0       0.000 ltr
  42                   JUNCTION      0.00     0.00     0  00:00           0           0       0.000 ltr
  43                   JUNCTION      0.00     0.00     0  00:00           0           0       0.000 ltr
  44                   JUNCTION      0.00     0.00     0  00:00           0           0       0.000 ltr
  45                   JUNCTION      0.00     0.00     0  00:00           0           0       0.000 ltr
  46                   JUNCTION      0.00     0.00     0  00:00           0           0       0.000 ltr
  47                   JUNCTION      0.00     0.00     0  00:00           0           0       0.000 ltr
  48                   JUNCTION      0.00     0.00     0  00:00           0           0       0.000 ltr
  49                   JUNCTION      0.00     0.00     0  00:00           0           0       0.000 ltr
  51                   JUNCTION      0.00     0.00     0  00:00           0           0       0.000 ltr
  52                   JUNCTION      0.00     0.00     0  00:00           0           0       0.000 ltr
  53                   JUNCTION      0.00     0.00     0  00:00           0           0       0.000 ltr
  54                   JUNCTION      0.00     0.00     0  00:00           0           0       0.000 ltr
  55                   JUNCTION      0.00     0.00     0  00:00           0           0       0.000 ltr
  56                   JUNCTION      0.00     0.00     0  00:00           0           0       0.000 ltr
  57                   JUNCTION      0.00     0.00     0  00:00           0           0       0.000 ltr
  58                   JUNCTION      0.00     0.00     0  00:00           0           0       0.000 ltr
  59                   JUNCTION      0.00     0.00     0  00:00           0           0       0.000 ltr
  6                    JUNCTION      0.00     0.00     0  00:00           0           0       0.000 ltr
  60                   JUNCTION      0.00     0.00     0  00:00           0           0       0.000 ltr
  62                   JUNCTION      0.00     0.00     0  00:00           0           0       0.000 ltr
  63                   JUNCTION      0.00     0.00     0  00:00           0           0       0.000 ltr
  64                   JUNCTION      0.00     0.00     0  00:00           0           0       0.000 ltr
  65                   JUNCTION      0.00     0.00     0  00:00           0           0       0.000 ltr
  67                   JUNCTION      0.00     0.00     0  00:00           0           0       0.000 ltr
  69                   JUNCTION      0.00     0.00     0  00:00           0           0       0.000 ltr
  7                    JUNCTION      0.00     0.00     0  00:00           0           0       0.000 ltr
  70                   JUNCTION      0.00     0.00     0  00:00           0           0       0.000 ltr
  72                   JUNCTION      0.00     0.00     0  00:00           0           0       0.000 ltr
  73                   JUNCTION      0.00     0.00     0  00:00           0           0       0.000 ltr
  74                   JUNCTION      0.00     0.00     0  00:00           0           0       0.000 ltr
  8                    JUNCTION      0.00     0.00     0  00:00           0           0       0.000 ltr
  84                   JUNCTION      0.00     0.00     0  00:00           0           0       0.000 ltr
  86                   JUNCTION      0.00     0.00     0  00:00           0           0       0.000 ltr
  88                   JUNCTION      0.00     0.00     0  00:00           0           0       0.000 ltr
  89                   JUNCTION      0.00     0.00     0  00:00           0           0       0.000 ltr
  9                    JUNCTION      0.00     0.00     0  00:00           0           0       0.000 ltr
  J1                   JUNCTION      0.00     0.00     0  00:00           0           0       0.000 ltr
  J2                   JUNCTION      0.00     0.00     0  00:00           0           0       0.000 ltr
  J3                   JUNCTION      0.00     0.00     0  00:00           0           0       0.000 ltr
  J4                   JUNCTION      0.00     0.00     0  00:00           0           0       0.000 ltr
  NODE100              JUNCTION      0.00     0.00     0  00:00           0           0       0.000 ltr
  NODE101              JUNCTION      0.00     0.00     0  00:00           0           0       0.000 ltr
  NODE102              JUNCTION      0.00     0.00     0  00:00           0           0       0.000 ltr
  NODE103              JUNCTION      0.00     0.00     0  00:00           0           0       0.000 ltr
  NODE104              JUNCTION      0.00     0.00     0  00:00           0           0       0.000 ltr
  NODE105              JUNCTION      0.00     0.00     0  00:00           0           0       0.000 ltr
  NODE106              JUNCTION      0.00     0.00     0  00:00           0           0       0.000 ltr
  NODE107              JUNCTION      0.00     0.00     0  00:00           0           0       0.000 ltr
  NODE108              JUNCTION      0.00     0.00     0  00:00           0           0       0.000 ltr
  NODE109              JUNCTION      0.00     0.00     0  00:00           0           0       0.000 ltr
  NODE110              JUNCTION      0.00     0.00     0  00:00           0           0       0.000 ltr
  NODE111              JUNCTION      0.00     0.00     0  00:00           0           0       0.000 ltr
  NODE113              JUNCTION      0.00     0.00     0  00:00           0           0       0.000 ltr
  NODE115              JUNCTION      0.00     0.00     0  00:00           0           0       0.000 ltr
  NODE116              JUNCTION      0.00     0.00     0  00:00           0           0       0.000 ltr
  NODE117              JUNCTION      0.00     0.00     0  00:00           0           0       0.000 ltr
  NODE118              JUNCTION      0.00     0.00     0  00:00           0           0       0.000 ltr
  NODE119              JUNCTION      0.00     0.00     0  00:00           0           0       0.000 ltr
  NODE122              JUNCTION      0.00     0.00     0  00:00           0           0       0.000 ltr
  NODE123              JUNCTION      0.00     0.00     0  00:00           0           0       0.000 ltr
  NODE124              JUNCTION      0.00     0.00     0  00:00           0           0       0.000 ltr
  NODE87               JUNCTION      0.00     0.00     0  00:00           0           0       0.000 ltr
  NODE88               JUNCTION      0.00     0.00     0  00:00           0           0       0.000 ltr
  NODE92               JUNCTION      0.00     0.00     0  00:00           0           0       0.000 ltr
  NODE94               JUNCTION      0.00     0.00     0  00:00           0           0       0.000 ltr
  NODE95               JUNCTION      0.00     0.00     0  00:00           0           0       0.000 ltr
  NODE96               JUNCTION      0.00     0.00     0  00:00           0           0       0.000 ltr
  NODE97               JUNCTION      0.00     0.00     0  00:00           0           0       0.000 ltr
  NODE99               JUNCTION      0.00     0.00     0  00:00           0           0       0.000 ltr
  NODE114              OUTFALL       0.00     0.00     0  00:00           0           0       0.000 ltr
  NODE120              OUTFALL       0.00     0.00     0  00:00           0           0       0.000 ltr
  
  
  **********************
  Node Surcharge Summary
  **********************
  
  No nodes were surcharged.
  
  
  *********************
  Node Flooding Summary
  *********************
  
  No nodes were flooded.
  
  
  ***********************
  Outfall Loading Summary
  ***********************
  
  -----------------------------------------------------------
                         Flow       Avg       Max       Total
                         Freq      Flow      Flow      Volume
  Outfall Node           Pcnt       LPS       LPS    10^6 ltr
  -----------------------------------------------------------
  NODE114             -nan(ind)      0.00      0.00       0.000
  NODE120             -nan(ind)      0.00      0.00       0.000
  -----------------------------------------------------------
  System              -nan(ind)      0.00      0.00       0.000
  
  
  ********************
  Link Flow Summary
  ********************
  
  -----------------------------------------------------------------------------
                                 Maximum  Time of Max   Maximum    Max/    Max/
                                  |Flow|   Occurrence   |Veloc|    Full    Full
  Link                 Type          LPS  days hr:min     m/sec    Flow   Depth
  -----------------------------------------------------------------------------
  10.1                 CONDUIT      0.00     0  00:00      0.00    0.00    0.00
  11                   CONDUIT      0.00     0  00:00      0.00    0.00    0.00
  12.1                 CONDUIT      0.00     0  00:00      0.00    0.00    0.00
  13.1                 CONDUIT      0.00     0  00:00      0.00    0.00    0.00
  14.1                 CONDUIT      0.00     0  00:00      0.00    0.00    0.00
  15.1                 CONDUIT      0.00     0  00:00      0.00    0.00    0.00
  16.1                 CONDUIT      0.00     0  00:00      0.00    0.00    0.00
  17.1                 CONDUIT      0.00     0  00:00      0.00    0.00    0.00
  18.1                 CONDUIT      0.00     0  00:00      0.00    0.00    0.00
  19.1                 CONDUIT      0.00     0  00:00      0.00    0.00    0.00
  2.1                  CONDUIT      0.00     0  00:00      0.00    0.00    0.00
  20.1                 CONDUIT      0.00     0  00:00      0.00    0.00    0.00
  21.1                 CONDUIT      0.00     0  00:00      0.00    0.00    0.00
  22.1                 CONDUIT      0.00     0  00:00      0.00    0.00    0.00
  23.1                 CONDUIT      0.00     0  00:00      0.00    0.00    0.00
  24.1                 CONDUIT      0.00     0  00:00      0.00    0.00    0.00
  25.1                 CONDUIT      0.00     0  00:00      0.00    0.00    0.00
  26.1                 CONDUIT      0.00     0  00:00      0.00    0.00    0.00
  27.1                 CONDUIT      0.00     0  00:00      0.00    0.00    0.00
  29.1                 CONDUIT      0.00     0  00:00      0.00    0.00    0.00
  3.1                  CONDUIT      0.00     0  00:00      0.00    0.00    0.00
  30.1                 CONDUIT      0.00     0  00:00      0.00    0.00    0.00
  31.1                 CONDUIT      0.00     0  00:00      0.00    0.00    0.00
  32.1                 CONDUIT      0.00     0  00:00      0.00    0.00    0.00
  33.1                 CONDUIT      0.00     0  00:00      0.00    0.00    0.00
  34.1                 CONDUIT      0.00     0  00:00      0.00    0.00    0.00
  35.1                 CONDUIT      0.00     0  00:00      0.00    0.00    0.00
  36.1                 CONDUIT      0.00     0  00:00      0.00    0.00    0.00
  37.1                 CONDUIT      0.00     0  00:00      0.00    0.00    0.00
  38.1                 CONDUIT      0.00     0  00:00      0.00    0.00    0.00
  39.1                 CONDUIT      0.00     0  00:00      0.00    0.00    0.00
  4.1                  CONDUIT      0.00     0  00:00      0.00    0.00    0.00
  40.1                 CONDUIT      0.00     0  00:00      0.00    0.00    0.00
  41.1                 CONDUIT      0.00     0  00:00      0.00    0.00    0.00
  42.1                 CONDUIT      0.00     0  00:00      0.00    0.00    0.00
  43.1                 CONDUIT      0.00     0  00:00      0.00    0.00    0.00
  44.1                 CONDUIT      0.00     0  00:00      0.00    0.00    0.00
  45.1                 CONDUIT      0.00     0  00:00      0.00    0.00    0.00
  46.1                 CONDUIT      0.00     0  00:00      0.00    0.00    0.00
  47.1                 CONDUIT      0.00     0  00:00      0.00    0.00    0.00
  48.1                 CONDUIT      0.00     0  00:00      0.00    0.00    0.00
  49.1                 CONDUIT      0.00     0  00:00      0.00    0.00    0.00
  5.1                  CONDUIT      0.00     0  00:00      0.00    0.00    0.00
  50                   CONDUIT      0.00     0  00:00      0.00    0.00    0.00
  51.1                 CONDUIT      0.00     0  00:00      0.00    0.00    0.00
  52.1                 CONDUIT      0.00     0  00:00      0.00    0.00    0.00
  53.1                 CONDUIT      0.00     0  00:00      0.00    0.00    0.00
  54.1                 CONDUIT      0.00     0  00:00      0.00    0.00    0.00
  55.1                 CONDUIT      0.00     0  00:00      0.00    0.00    0.00
  56.1                 CONDUIT      0.00     0  00:00      0.00    0.00    0.00
  57.1                 CONDUIT      0.00     0  00:00      0.00    0.00    0.00
  58.1                 CONDUIT      0.00     0  00:00      0.00    0.00    0.00
  59.1                 CONDUIT      0.00     0  00:00      0.00    0.00    0.00
  6.1                  CONDUIT      0.00     0  00:00      0.00    0.00    0.00
  60.1                 CONDUIT      0.00     0  00:00      0.00    0.00    0.00
  61.1                 CONDUIT      0.00     0  00:00      0.00    0.00    0.00
  62.1                 CONDUIT      0.00     0  00:00      0.00    0.00    0.00
  63.1                 CONDUIT      0.00     0  00:00      0.00    0.00    0.00
  64.1                 CONDUIT      0.00     0  00:00      0.00    0.00    0.00
  65.1                 CONDUIT      0.00     0  00:00      0.00    0.00    0.00
  66.1                 CONDUIT      0.00     0  00:00      0.00    0.00    0.00
  68                   CONDUIT      0.00     0  00:00      0.00    0.00    0.00
  69.1                 CONDUIT      0.00     0  00:00      0.00    0.00    0.00
  7.1                  CONDUIT      0.00     0  00:00      0.00    0.00    0.00
  70.1                 CONDUIT      0.00     0  00:00      0.00    0.00    0.00
  72.1                 CONDUIT      0.00     0  00:00      0.00    0.00    0.00
  73.1                 CONDUIT      0.00     0  00:00      0.00    0.00    0.00
  78.1                 CONDUIT      0.00     0  00:00      0.00    0.00    0.00
  79.1                 CONDUIT      0.00     0  00:00      0.00    0.00    0.00
  8.1                  CONDUIT      0.00     0  00:00      0.00    0.00    0.00
  83.1                 CONDUIT      0.00     0  00:00      0.00    0.00    0.00
  85.1                 CONDUIT      0.00     0  00:00      0.00    0.00    0.00
  86.1                 CONDUIT      0.00     0  00:00      0.00    0.00    0.00
  9.1                  CONDUIT      0.00     0  00:00      0.00    0.00    0.00
  C1                   CONDUIT      0.00     0  00:00      0.00    0.00    0.00
  C2                   CONDUIT      0.00     0  00:00      0.00    0.00    0.00
  C3                   CONDUIT      0.00     0  00:00      0.00    0.00    0.00
  C4                   CONDUIT      0.00     0  00:00      0.00    0.00    0.00
  C5                   CONDUIT      0.00     0  00:00      0.00    0.00    0.00
  LINK100              CONDUIT      0.00     0  00:00      0.00    0.00    0.00
  LINK101              CONDUIT      0.00     0  00:00      0.00    0.00    0.00
  LINK102              CONDUIT      0.00     0  00:00      0.00    0.00    0.00
  LINK103              CONDUIT      0.00     0  00:00      0.00    0.00    0.00
  LINK104              CONDUIT      0.00     0  00:00      0.00    0.00    0.00
  LINK105              CONDUIT      0.00     0  00:00      0.00    0.00    0.00
  LINK106              CONDUIT      0.00     0  00:00      0.00    0.00    0.00
  LINK107              CONDUIT      0.00     0  00:00      0.00    0.00    0.00
  LINK108              CONDUIT      0.00     0  00:00      0.00    0.00    0.00
  LINK110              CONDUIT      0.00     0  00:00      0.00    0.00    0.00
  LINK111              CONDUIT      0.00     0  00:00      0.00    0.00    0.00
  LINK112              CONDUIT      0.00     0  00:00      0.00    0.00    0.00
  LINK113              CONDUIT      0.00     0  00:00      0.00    0.00    0.00
  LINK114              CONDUIT      0.00     0  00:00      0.00    0.00    0.00
  LINK118              CONDUIT      0.00     0  00:00      0.00    0.00    0.00
  LINK119              CONDUIT      0.00     0  00:00      0.00    0.00    0.00
  LINK120              CONDUIT      0.00     0  00:00      0.00    0.00    0.00
  LINK84               CONDUIT      0.00     0  00:00      0.00    0.00    0.00
  LINK85               CONDUIT      0.00     0  00:00      0.00    0.00    0.00
  LINK96               CONDUIT      0.00     0  00:00      0.00    0.00    0.00
  LINK98               CONDUIT      0.00     0  00:00      0.00    0.00    0.00
  
  
  ***************************
  Flow Classification Summary
  ***************************
  
  -------------------------------------------------------------------------------------
                      Adjusted    ---------- Fraction of Time in Flow Class ---------- 
                       /Actual         Up    Down  Sub   Sup   Up    Down  Norm  Inlet 
  Conduit               Length    Dry  Dry   Dry   Crit  Crit  Crit  Crit  Ltd   Ctrl  
  -------------------------------------------------------------------------------------
  10.1                    1.00   -nan(ind)  -nan(ind)  -nan(ind)  -nan(ind)  -nan(ind)  -nan(ind)  -nan(ind)  -nan(ind)  -nan(ind)
  11                      1.00   -nan(ind)  -nan(ind)  -nan(ind)  -nan(ind)  -nan(ind)  -nan(ind)  -nan(ind)  -nan(ind)  -nan(ind)
  12.1                    1.00   -nan(ind)  -nan(ind)  -nan(ind)  -nan(ind)  -nan(ind)  -nan(ind)  -nan(ind)  -nan(ind)  -nan(ind)
  13.1                    1.00   -nan(ind)  -nan(ind)  -nan(ind)  -nan(ind)  -nan(ind)  -nan(ind)  -nan(ind)  -nan(ind)  -nan(ind)
  14.1                    1.00   -nan(ind)  -nan(ind)  -nan(ind)  -nan(ind)  -nan(ind)  -nan(ind)  -nan(ind)  -nan(ind)  -nan(ind)
  15.1                    1.00   -nan(ind)  -nan(ind)  -nan(ind)  -nan(ind)  -nan(ind)  -nan(ind)  -nan(ind)  -nan(ind)  -nan(ind)
  16.1                    1.00   -nan(ind)  -nan(ind)  -nan(ind)  -nan(ind)  -nan(ind)  -nan(ind)  -nan(ind)  -nan(ind)  -nan(ind)
  17.1                    1.00   -nan(ind)  -nan(ind)  -nan(ind)  -nan(ind)  -nan(ind)  -nan(ind)  -nan(ind)  -nan(ind)  -nan(ind)
  18.1                    1.00   -nan(ind)  -nan(ind)  -nan(ind)  -nan(ind)  -nan(ind)  -nan(ind)  -nan(ind)  -nan(ind)  -nan(ind)
  19.1                    1.00   -nan(ind)  -nan(ind)  -nan(ind)  -nan(ind)  -nan(ind)  -nan(ind)  -nan(ind)  -nan(ind)  -nan(ind)
  2.1                     1.00   -nan(ind)  -nan(ind)  -nan(ind)  -nan(ind)  -nan(ind)  -nan(ind)  -nan(ind)  -nan(ind)  -nan(ind)
  20.1                    1.00   -nan(ind)  -nan(ind)  -nan(ind)  -nan(ind)  -nan(ind)  -nan(ind)  -nan(ind)  -nan(ind)  -nan(ind)
  21.1                    1.00   -nan(ind)  -nan(ind)  -nan(ind)  -nan(ind)  -nan(ind)  -nan(ind)  -nan(ind)  -nan(ind)  -nan(ind)
  22.1                    1.00   -nan(ind)  -nan(ind)  -nan(ind)  -nan(ind)  -nan(ind)  -nan(ind)  -nan(ind)  -nan(ind)  -nan(ind)
  23.1                    1.00   -nan(ind)  -nan(ind)  -nan(ind)  -nan(ind)  -nan(ind)  -nan(ind)  -nan(ind)  -nan(ind)  -nan(ind)
  24.1                    1.00   -nan(ind)  -nan(ind)  -nan(ind)  -nan(ind)  -nan(ind)  -nan(ind)  -nan(ind)  -nan(ind)  -nan(ind)
  25.1                    1.00   -nan(ind)  -nan(ind)  -nan(ind)  -nan(ind)  -nan(ind)  -nan(ind)  -nan(ind)  -nan(ind)  -nan(ind)
  26.1                    1.00   -nan(ind)  -nan(ind)  -nan(ind)  -nan(ind)  -nan(ind)  -nan(ind)  -nan(ind)  -nan(ind)  -nan(ind)
  27.1                    1.00   -nan(ind)  -nan(ind)  -nan(ind)  -nan(ind)  -nan(ind)  -nan(ind)  -nan(ind)  -nan(ind)  -nan(ind)
  29.1                    1.00   -nan(ind)  -nan(ind)  -nan(ind)  -nan(ind)  -nan(ind)  -nan(ind)  -nan(ind)  -nan(ind)  -nan(ind)
  3.1                     1.00   -nan(ind)  -nan(ind)  -nan(ind)  -nan(ind)  -nan(ind)  -nan(ind)  -nan(ind)  -nan(ind)  -nan(ind)
  30.1                    1.00   -nan(ind)  -nan(ind)  -nan(ind)  -nan(ind)  -nan(ind)  -nan(ind)  -nan(ind)  -nan(ind)  -nan(ind)
  31.1                    1.00   -nan(ind)  -nan(ind)  -nan(ind)  -nan(ind)  -nan(ind)  -nan(ind)  -nan(ind)  -nan(ind)  -nan(ind)
  32.1                    1.00   -nan(ind)  -nan(ind)  -nan(ind)  -nan(ind)  -nan(ind)  -nan(ind)  -nan(ind)  -nan(ind)  -nan(ind)
  33.1                    1.00   -nan(ind)  -nan(ind)  -nan(ind)  -nan(ind)  -nan(ind)  -nan(ind)  -nan(ind)  -nan(ind)  -nan(ind)
  34.1                    1.00   -nan(ind)  -nan(ind)  -nan(ind)  -nan(ind)  -nan(ind)  -nan(ind)  -nan(ind)  -nan(ind)  -nan(ind)
  35.1                    1.00   -nan(ind)  -nan(ind)  -nan(ind)  -nan(ind)  -nan(ind)  -nan(ind)  -nan(ind)  -nan(ind)  -nan(ind)
  36.1                    1.00   -nan(ind)  -nan(ind)  -nan(ind)  -nan(ind)  -nan(ind)  -nan(ind)  -nan(ind)  -nan(ind)  -nan(ind)
  37.1                    1.00   -nan(ind)  -nan(ind)  -nan(ind)  -nan(ind)  -nan(ind)  -nan(ind)  -nan(ind)  -nan(ind)  -nan(ind)
  38.1                    1.00   -nan(ind)  -nan(ind)  -nan(ind)  -nan(ind)  -nan(ind)  -nan(ind)  -nan(ind)  -nan(ind)  -nan(ind)
  39.1                    1.00   -nan(ind)  -nan(ind)  -nan(ind)  -nan(ind)  -nan(ind)  -nan(ind)  -nan(ind)  -nan(ind)  -nan(ind)
  4.1                     1.00   -nan(ind)  -nan(ind)  -nan(ind)  -nan(ind)  -nan(ind)  -nan(ind)  -nan(ind)  -nan(ind)  -nan(ind)
  40.1                    1.00   -nan(ind)  -nan(ind)  -nan(ind)  -nan(ind)  -nan(ind)  -nan(ind)  -nan(ind)  -nan(ind)  -nan(ind)
  41.1                    1.00   -nan(ind)  -nan(ind)  -nan(ind)  -nan(ind)  -nan(ind)  -nan(ind)  -nan(ind)  -nan(ind)  -nan(ind)
  42.1                    1.00   -nan(ind)  -nan(ind)  -nan(ind)  -nan(ind)  -nan(ind)  -nan(ind)  -nan(ind)  -nan(ind)  -nan(ind)
  43.1                    1.00   -nan(ind)  -nan(ind)  -nan(ind)  -nan(ind)  -nan(ind)  -nan(ind)  -nan(ind)  -nan(ind)  -nan(ind)
  44.1                    1.00   -nan(ind)  -nan(ind)  -nan(ind)  -nan(ind)  -nan(ind)  -nan(ind)  -nan(ind)  -nan(ind)  -nan(ind)
  45.1                    1.00   -nan(ind)  -nan(ind)  -nan(ind)  -nan(ind)  -nan(ind)  -nan(ind)  -nan(ind)  -nan(ind)  -nan(ind)
  46.1                    1.00   -nan(ind)  -nan(ind)  -nan(ind)  -nan(ind)  -nan(ind)  -nan(ind)  -nan(ind)  -nan(ind)  -nan(ind)
  47.1                    1.00   -nan(ind)  -nan(ind)  -nan(ind)  -nan(ind)  -nan(ind)  -nan(ind)  -nan(ind)  -nan(ind)  -nan(ind)
  48.1                    1.00   -nan(ind)  -nan(ind)  -nan(ind)  -nan(ind)  -nan(ind)  -nan(ind)  -nan(ind)  -nan(ind)  -nan(ind)
  49.1                    1.00   -nan(ind)  -nan(ind)  -nan(ind)  -nan(ind)  -nan(ind)  -nan(ind)  -nan(ind)  -nan(ind)  -nan(ind)
  5.1                     1.00   -nan(ind)  -nan(ind)  -nan(ind)  -nan(ind)  -nan(ind)  -nan(ind)  -nan(ind)  -nan(ind)  -nan(ind)
  50                      1.00   -nan(ind)  -nan(ind)  -nan(ind)  -nan(ind)  -nan(ind)  -nan(ind)  -nan(ind)  -nan(ind)  -nan(ind)
  51.1                    1.00   -nan(ind)  -nan(ind)  -nan(ind)  -nan(ind)  -nan(ind)  -nan(ind)  -nan(ind)  -nan(ind)  -nan(ind)
  52.1                    1.00   -nan(ind)  -nan(ind)  -nan(ind)  -nan(ind)  -nan(ind)  -nan(ind)  -nan(ind)  -nan(ind)  -nan(ind)
  53.1                    1.00   -nan(ind)  -nan(ind)  -nan(ind)  -nan(ind)  -nan(ind)  -nan(ind)  -nan(ind)  -nan(ind)  -nan(ind)
  54.1                    1.00   -nan(ind)  -nan(ind)  -nan(ind)  -nan(ind)  -nan(ind)  -nan(ind)  -nan(ind)  -nan(ind)  -nan(ind)
  55.1                    1.00   -nan(ind)  -nan(ind)  -nan(ind)  -nan(ind)  -nan(ind)  -nan(ind)  -nan(ind)  -nan(ind)  -nan(ind)
  56.1                    1.00   -nan(ind)  -nan(ind)  -nan(ind)  -nan(ind)  -nan(ind)  -nan(ind)  -nan(ind)  -nan(ind)  -nan(ind)
  57.1                    1.00   -nan(ind)  -nan(ind)  -nan(ind)  -nan(ind)  -nan(ind)  -nan(ind)  -nan(ind)  -nan(ind)  -nan(ind)
  58.1                    1.00   -nan(ind)  -nan(ind)  -nan(ind)  -nan(ind)  -nan(ind)  -nan(ind)  -nan(ind)  -nan(ind)  -nan(ind)
  59.1                    1.00   -nan(ind)  -nan(ind)  -nan(ind)  -nan(ind)  -nan(ind)  -nan(ind)  -nan(ind)  -nan(ind)  -nan(ind)
  6.1                     1.00   -nan(ind)  -nan(ind)  -nan(ind)  -nan(ind)  -nan(ind)  -nan(ind)  -nan(ind)  -nan(ind)  -nan(ind)
  60.1                    1.00   -nan(ind)  -nan(ind)  -nan(ind)  -nan(ind)  -nan(ind)  -nan(ind)  -nan(ind)  -nan(ind)  -nan(ind)
  61.1                    1.00   -nan(ind)  -nan(ind)  -nan(ind)  -nan(ind)  -nan(ind)  -nan(ind)  -nan(ind)  -nan(ind)  -nan(ind)
  62.1                    1.00   -nan(ind)  -nan(ind)  -nan(ind)  -nan(ind)  -nan(ind)  -nan(ind)  -nan(ind)  -nan(ind)  -nan(ind)
  63.1                    1.00   -nan(ind)  -nan(ind)  -nan(ind)  -nan(ind)  -nan(ind)  -nan(ind)  -nan(ind)  -nan(ind)  -nan(ind)
  64.1                    1.00   -nan(ind)  -nan(ind)  -nan(ind)  -nan(ind)  -nan(ind)  -nan(ind)  -nan(ind)  -nan(ind)  -nan(ind)
  65.1                    1.00   -nan(ind)  -nan(ind)  -nan(ind)  -nan(ind)  -nan(ind)  -nan(ind)  -nan(ind)  -nan(ind)  -nan(ind)
  66.1                    1.00   -nan(ind)  -nan(ind)  -nan(ind)  -nan(ind)  -nan(ind)  -nan(ind)  -nan(ind)  -nan(ind)  -nan(ind)
  68                      1.00   -nan(ind)  -nan(ind)  -nan(ind)  -nan(ind)  -nan(ind)  -nan(ind)  -nan(ind)  -nan(ind)  -nan(ind)
  69.1                    1.00   -nan(ind)  -nan(ind)  -nan(ind)  -nan(ind)  -nan(ind)  -nan(ind)  -nan(ind)  -nan(ind)  -nan(ind)
  7.1                     1.00   -nan(ind)  -nan(ind)  -nan(ind)  -nan(ind)  -nan(ind)  -nan(ind)  -nan(ind)  -nan(ind)  -nan(ind)
  70.1                    1.00   -nan(ind)  -nan(ind)  -nan(ind)  -nan(ind)  -nan(ind)  -nan(ind)  -nan(ind)  -nan(ind)  -nan(ind)
  72.1                    1.00   -nan(ind)  -nan(ind)  -nan(ind)  -nan(ind)  -nan(ind)  -nan(ind)  -nan(ind)  -nan(ind)  -nan(ind)
  73.1                    1.00   -nan(ind)  -nan(ind)  -nan(ind)  -nan(ind)  -nan(ind)  -nan(ind)  -nan(ind)  -nan(ind)  -nan(ind)
  78.1                    1.00   -nan(ind)  -nan(ind)  -nan(ind)  -nan(ind)  -nan(ind)  -nan(ind)  -nan(ind)  -nan(ind)  -nan(ind)
  79.1                    1.00   -nan(ind)  -nan(ind)  -nan(ind)  -nan(ind)  -nan(ind)  -nan(ind)  -nan(ind)  -nan(ind)  -nan(ind)
  8.1                     1.00   -nan(ind)  -nan(ind)  -nan(ind)  -nan(ind)  -nan(ind)  -nan(ind)  -nan(ind)  -nan(ind)  -nan(ind)
  83.1                    1.00   -nan(ind)  -nan(ind)  -nan(ind)  -nan(ind)  -nan(ind)  -nan(ind)  -nan(ind)  -nan(ind)  -nan(ind)
  85.1                    1.00   -nan(ind)  -nan(ind)  -nan(ind)  -nan(ind)  -nan(ind)  -nan(ind)  -nan(ind)  -nan(ind)  -nan(ind)
  86.1                    1.00   -nan(ind)  -nan(ind)  -nan(ind)  -nan(ind)  -nan(ind)  -nan(ind)  -nan(ind)  -nan(ind)  -nan(ind)
  9.1                     1.00   -nan(ind)  -nan(ind)  -nan(ind)  -nan(ind)  -nan(ind)  -nan(ind)  -nan(ind)  -nan(ind)  -nan(ind)
  C1                      1.00   -nan(ind)  -nan(ind)  -nan(ind)  -nan(ind)  -nan(ind)  -nan(ind)  -nan(ind)  -nan(ind)  -nan(ind)
  C2                      1.00   -nan(ind)  -nan(ind)  -nan(ind)  -nan(ind)  -nan(ind)  -nan(ind)  -nan(ind)  -nan(ind)  -nan(ind)
  C3                      1.00   -nan(ind)  -nan(ind)  -nan(ind)  -nan(ind)  -nan(ind)  -nan(ind)  -nan(ind)  -nan(ind)  -nan(ind)
  C4                      1.00   -nan(ind)  -nan(ind)  -nan(ind)  -nan(ind)  -nan(ind)  -nan(ind)  -nan(ind)  -nan(ind)  -nan(ind)
  C5                      1.00   -nan(ind)  -nan(ind)  -nan(ind)  -nan(ind)  -nan(ind)  -nan(ind)  -nan(ind)  -nan(ind)  -nan(ind)
  LINK100                 1.00   -nan(ind)  -nan(ind)  -nan(ind)  -nan(ind)  -nan(ind)  -nan(ind)  -nan(ind)  -nan(ind)  -nan(ind)
  LINK101                 1.00   -nan(ind)  -nan(ind)  -nan(ind)  -nan(ind)  -nan(ind)  -nan(ind)  -nan(ind)  -nan(ind)  -nan(ind)
  LINK102                 1.00   -nan(ind)  -nan(ind)  -nan(ind)  -nan(ind)  -nan(ind)  -nan(ind)  -nan(ind)  -nan(ind)  -nan(ind)
  LINK103                 1.00   -nan(ind)  -nan(ind)  -nan(ind)  -nan(ind)  -nan(ind)  -nan(ind)  -nan(ind)  -nan(ind)  -nan(ind)
  LINK104                 1.00   -nan(ind)  -nan(ind)  -nan(ind)  -nan(ind)  -nan(ind)  -nan(ind)  -nan(ind)  -nan(ind)  -nan(ind)
  LINK105                 1.00   -nan(ind)  -nan(ind)  -nan(ind)  -nan(ind)  -nan(ind)  -nan(ind)  -nan(ind)  -nan(ind)  -nan(ind)
  LINK106                 1.00   -nan(ind)  -nan(ind)  -nan(ind)  -nan(ind)  -nan(ind)  -nan(ind)  -nan(ind)  -nan(ind)  -nan(ind)
  LINK107                 1.00   -nan(ind)  -nan(ind)  -nan(ind)  -nan(ind)  -nan(ind)  -nan(ind)  -nan(ind)  -nan(ind)  -nan(ind)
  LINK108                 1.00   -nan(ind)  -nan(ind)  -nan(ind)  -nan(ind)  -nan(ind)  -nan(ind)  -nan(ind)  -nan(ind)  -nan(ind)
  LINK110                 1.00   -nan(ind)  -nan(ind)  -nan(ind)  -nan(ind)  -nan(ind)  -nan(ind)  -nan(ind)  -nan(ind)  -nan(ind)
  LINK111                 1.00   -nan(ind)  -nan(ind)  -nan(ind)  -nan(ind)  -nan(ind)  -nan(ind)  -nan(ind)  -nan(ind)  -nan(ind)
  LINK112                 1.00   -nan(ind)  -nan(ind)  -nan(ind)  -nan(ind)  -nan(ind)  -nan(ind)  -nan(ind)  -nan(ind)  -nan(ind)
  LINK113                 1.00   -nan(ind)  -nan(ind)  -nan(ind)  -nan(ind)  -nan(ind)  -nan(ind)  -nan(ind)  -nan(ind)  -nan(ind)
  LINK114                 1.00   -nan(ind)  -nan(ind)  -nan(ind)  -nan(ind)  -nan(ind)  -nan(ind)  -nan(ind)  -nan(ind)  -nan(ind)
  LINK118                 1.00   -nan(ind)  -nan(ind)  -nan(ind)  -nan(ind)  -nan(ind)  -nan(ind)  -nan(ind)  -nan(ind)  -nan(ind)
  LINK119                 1.00   -nan(ind)  -nan(ind)  -nan(ind)  -nan(ind)  -nan(ind)  -nan(ind)  -nan(ind)  -nan(ind)  -nan(ind)
  LINK120                 1.00   -nan(ind)  -nan(ind)  -nan(ind)  -nan(ind)  -nan(ind)  -nan(ind)  -nan(ind)  -nan(ind)  -nan(ind)
  LINK84                  1.00   -nan(ind)  -nan(ind)  -nan(ind)  -nan(ind)  -nan(ind)  -nan(ind)  -nan(ind)  -nan(ind)  -nan(ind)
  LINK85                  1.00   -nan(ind)  -nan(ind)  -nan(ind)  -nan(ind)  -nan(ind)  -nan(ind)  -nan(ind)  -nan(ind)  -nan(ind)
  LINK96                  1.00   -nan(ind)  -nan(ind)  -nan(ind)  -nan(ind)  -nan(ind)  -nan(ind)  -nan(ind)  -nan(ind)  -nan(ind)
  LINK98                  1.00   -nan(ind)  -nan(ind)  -nan(ind)  -nan(ind)  -nan(ind)  -nan(ind)  -nan(ind)  -nan(ind)  -nan(ind)
  
  
  *************************
  Conduit Surcharge Summary
  *************************
  
  No conduits were surcharged.
  

  Analysis begun on:  Sat Nov 30 08:10:39 2019
  Analysis ended on:  Sat Nov 30 08:10:39 2019
  Total elapsed time: < 1 sec