
  EPA STORM WATER MANAGEMENT MODEL - VERSION 5.1 (Build 5.1.013)
  --------------------------------------------------------------

  Scenario Run :  BASE 
  
  WARNING 02: maximum depth increased for Node NODE123
  
  *************
  Element Count
  *************
  Number of rain gages ...... 2
  Number of subcatchments ... 66
  Number of nodes ........... 102
  Number of links ........... 100
  Number of pollutants ...... 0
  Number of land uses ....... 0
  
  
  ****************
  Raingage Summary
  ****************
                                                      Data       Recording
  Name                 Data Source                    Type       Interval 
  ------------------------------------------------------------------------
  10YR_24HR            10YR_24HR_SERIES               INTENSITY   60 min.
  10YR_2HR_STORM       TS1                            INTENSITY    5 min.
  
  
  ********************
  Subcatchment Summary
  ********************
  Name                       Area     Width   %Imperv    %Slope Rain Gage            Outlet              
  -----------------------------------------------------------------------------------------------------------
  AR-1                       8.65    380.00     30.00    0.1000 10YR_2HR_STORM       NODE122             
  AR-2                      12.67    500.00     25.00    0.1000 10YR_2HR_STORM       NODE122             
  AR-3                       4.05    250.00     15.00    0.1000 10YR_2HR_STORM       J1                  
  AR-4                       1.06    230.00     40.00    0.1000 10YR_2HR_STORM       NODE122             
  AR-5                       2.98    300.00     20.00    0.1000 10YR_2HR_STORM       NODE123             
  AR-6                       0.80    170.00     30.00    0.1000 10YR_2HR_STORM       NODE104             
  HYATT-1                    3.26    150.00     90.00    0.1000 10YR_2HR_STORM       NODE107             
  HYATT-2                    2.21    150.00     90.00    0.1000 10YR_2HR_STORM       NODE110             
  SUBCATCH-1                 0.58    117.54     85.00    0.1000 10YR_2HR_STORM       3                   
  SUBCATCH-10                0.29     58.48     85.00    0.1000 10YR_2HR_STORM       7                   
  SUBCATCH-11                0.37     74.99     85.00    0.1000 10YR_2HR_STORM       8                   
  SUBCATCH-12                0.41     82.49     85.00    0.1000 10YR_2HR_STORM       NODE101             
  SUBCATCH-13                0.61    123.76     85.00    0.1000 10YR_2HR_STORM       62                  
  SUBCATCH-14                0.31     58.94     85.00    0.1000 10YR_2HR_STORM       9                   
  SUBCATCH-15                0.47     97.41     85.00    0.1000 10YR_2HR_STORM       10                  
  SUBCATCH-16                0.40     80.59     85.00    0.1000 10YR_2HR_STORM       17                  
  SUBCATCH-17                0.51    103.89     85.00    0.1000 10YR_2HR_STORM       12                  
  SUBCATCH-18                0.64    120.76     85.00    0.1000 10YR_2HR_STORM       86                  
  SUBCATCH-19                0.35     72.65     85.00    0.1000 10YR_2HR_STORM       20                  
  SUBCATCH-2                 0.31     61.68     85.00    0.1000 10YR_2HR_STORM       67                  
  SUBCATCH-20                0.17     35.80     85.00    0.1000 10YR_2HR_STORM       23                  
  SUBCATCH-21                0.35     69.30     85.00    0.1000 10YR_2HR_STORM       45                  
  SUBCATCH-22                0.51     99.52     85.00    0.1000 10YR_2HR_STORM       47                  
  SUBCATCH-23                0.51    102.98     85.00    0.1000 10YR_2HR_STORM       49                  
  SUBCATCH-24                0.26     52.10     85.00    0.1000 10YR_2HR_STORM       NODE100             
  SUBCATCH-25                0.40     74.11     85.00    0.1000 10YR_2HR_STORM       52                  
  SUBCATCH-26                0.96    190.24     85.00    0.1000 10YR_2HR_STORM       74                  
  SUBCATCH-27                0.59    116.55     85.00    0.1000 10YR_2HR_STORM       72                  
  SUBCATCH-28                0.48     98.89     85.00    0.1000 10YR_2HR_STORM       65                  
  SUBCATCH-29                0.42     83.65     85.00    0.1000 10YR_2HR_STORM       64                  
  SUBCATCH-3                 0.42     85.76     85.00    0.1000 10YR_2HR_STORM       NODE94              
  SUBCATCH-30                0.61    115.00     85.00    0.1000 10YR_2HR_STORM       38                  
  SUBCATCH-31                0.56    106.44     85.00    0.1000 10YR_2HR_STORM       33                  
  SUBCATCH-32                0.60    119.75     85.00    0.1000 10YR_2HR_STORM       34                  
  SUBCATCH-33                0.20     39.52     85.00    0.1000 10YR_2HR_STORM       23                  
  SUBCATCH-34                0.16     35.68     85.00    0.1000 10YR_2HR_STORM       22                  
  SUBCATCH-35                0.42     85.47     85.00    0.1000 10YR_2HR_STORM       60                  
  SUBCATCH-36                0.39     75.57     85.00    0.1000 10YR_2HR_STORM       25                  
  SUBCATCH-37                0.44     92.24     85.00    0.1000 10YR_2HR_STORM       32                  
  SUBCATCH-38                0.39     82.79     85.00    0.1000 10YR_2HR_STORM       56                  
  SUBCATCH-39                0.45     85.76     85.00    0.1000 10YR_2HR_STORM       57                  
  SUBCATCH-4                 0.34     62.40     85.00    0.1000 10YR_2HR_STORM       88                  
  SUBCATCH-40                0.44     86.68     85.00    0.1000 10YR_2HR_STORM       69                  
  SUBCATCH-41                0.38     78.97     85.00    0.1000 10YR_2HR_STORM       63                  
  SUBCATCH-42                0.38     78.25     85.00    0.1000 10YR_2HR_STORM       64                  
  SUBCATCH-43                0.41     83.14     85.00    0.1000 10YR_2HR_STORM       NODE103             
  SUBCATCH-44                0.36     72.63     85.00    0.1000 10YR_2HR_STORM       42                  
  SUBCATCH-45                0.11     19.15     85.00    0.1000 10YR_2HR_STORM       43                  
  SUBCATCH-46                0.60    124.08     85.00    0.1000 10YR_2HR_STORM       59                  
  SUBCATCH-47                0.07     12.21     85.00    0.1000 10YR_2HR_STORM       44                  
  SUBCATCH-48                1.63    200.00     85.00    0.1000 10YR_2HR_STORM       32                  
  SUBCATCH-49                8.42    350.00     80.00    0.1000 10YR_2HR_STORM       55                  
  SUBCATCH-5                 0.31     63.23     85.00    0.1000 10YR_2HR_STORM       29                  
  SUBCATCH-50                5.49    300.00     85.00    0.1000 10YR_2HR_STORM       54                  
  SUBCATCH-51               41.52    900.00     85.00    0.1000 10YR_2HR_STORM       53                  
  SUBCATCH-52                0.97    194.76     85.00    0.1000 10YR_2HR_STORM       NODE116             
  SUBCATCH-53                0.65    129.31     85.00    0.1000 10YR_2HR_STORM       NODE117             
  SUBCATCH-54                0.85    169.26     85.00    0.1000 10YR_2HR_STORM       NODE119             
  SUBCATCH-55                0.44     88.23     85.00    0.1000 10YR_2HR_STORM       NODE102             
  SUBCATCH-56                0.47     90.13     85.00    0.1000 10YR_2HR_STORM       27                  
  SUBCATCH-57                0.37     74.29     85.00    0.1000 10YR_2HR_STORM       25                  
  SUBCATCH-58                0.55    111.91     85.00    0.1000 10YR_2HR_STORM       15                  
  SUBCATCH-6                 0.37     72.26     85.00    0.1000 10YR_2HR_STORM       NODE88              
  SUBCATCH-7                 1.13    221.72     85.00    0.1000 10YR_2HR_STORM       16                  
  SUBCATCH-8                 0.73    152.00     85.00    0.1000 10YR_2HR_STORM       51                  
  SUBCATCH-9                 0.26     48.86     85.00    0.1000 10YR_2HR_STORM       6                   
  
  
  ************
  Node Summary
  ************
                                           Invert      Max.    Ponded    External
  Name                 Type                 Elev.     Depth      Area    Inflow  
  -------------------------------------------------------------------------------
  1                    JUNCTION             -0.45      1.96       0.0
  10                   JUNCTION             -0.59      2.38       0.0
  12                   JUNCTION             -0.69      2.88       0.0
  13                   JUNCTION             -0.71      2.98       0.0
  14                   JUNCTION             -0.54      2.17       0.0
  15                   JUNCTION             -0.48      2.23       0.0
  16                   JUNCTION             -0.43      2.11       0.0
  17                   JUNCTION             -0.63      2.29       0.0
  18                   JUNCTION             -0.66      2.98       0.0
  19                   JUNCTION             -0.79      2.69       0.0
  2                    JUNCTION             -0.41      1.92       0.0
  20                   JUNCTION             -0.62      2.58       0.0
  21                   JUNCTION             -0.67      2.84       0.0
  22                   JUNCTION             -0.57      2.23       0.0
  23                   JUNCTION             -0.60      2.44       0.0
  24                   JUNCTION             -0.54      2.25       0.0
  25                   JUNCTION             -0.51      2.33       0.0
  27                   JUNCTION             -0.47      1.90       0.0
  29                   JUNCTION             -0.45      2.19       0.0
  3                    JUNCTION             -0.39      2.01       0.0
  30                   JUNCTION             -0.49      2.55       0.0
  31                   JUNCTION             -0.43      2.36       0.0
  32                   JUNCTION             -0.35      2.03       0.0
  33                   JUNCTION             -0.54      2.36       0.0
  34                   JUNCTION             -0.57      2.48       0.0
  35                   JUNCTION             -0.49      1.98       0.0
  38                   JUNCTION             -0.49      2.18       0.0
  39                   JUNCTION             -0.35      2.82       0.0
  4                    JUNCTION             -0.39      1.84       0.0
  40                   JUNCTION             -0.28      2.27       0.0
  41                   JUNCTION             -0.18      2.00       0.0
  42                   JUNCTION             -0.27      1.99       0.0
  43                   JUNCTION             -0.24      2.02       0.0
  44                   JUNCTION             -0.20      2.06       0.0
  45                   JUNCTION             -0.25      1.51       0.0
  46                   JUNCTION             -0.28      1.88       0.0
  47                   JUNCTION             -0.33      2.03       0.0
  48                   JUNCTION             -0.35      2.00       0.0
  49                   JUNCTION             -0.39      1.83       0.0
  51                   JUNCTION             -0.45      1.94       0.0
  52                   JUNCTION             -0.41      2.06       0.0
  53                   JUNCTION             -0.21      1.93       0.0
  54                   JUNCTION             -0.30      2.63       0.0
  55                   JUNCTION             -0.07      1.58       0.0
  56                   JUNCTION             -0.43      1.92       0.0
  57                   JUNCTION             -0.41      1.98       0.0
  58                   JUNCTION             -0.39      1.84       0.0
  59                   JUNCTION             -0.35      1.82       0.0
  6                    JUNCTION             -0.49      2.11       0.0
  60                   JUNCTION             -0.32      1.70       0.0
  62                   JUNCTION             -0.44      1.97       0.0
  63                   JUNCTION             -0.33      1.73       0.0
  64                   JUNCTION             -0.30      1.78       0.0
  65                   JUNCTION             -0.30      1.66       0.0
  67                   JUNCTION             -0.34      1.74       0.0
  69                   JUNCTION             -0.38      1.84       0.0
  7                    JUNCTION             -0.51      2.09       0.0
  70                   JUNCTION             -0.36      1.74       0.0
  72                   JUNCTION             -0.27      1.71       0.0
  73                   JUNCTION             -0.23      1.79       0.0
  74                   JUNCTION             -0.21      1.63       0.0
  8                    JUNCTION             -0.53      1.95       0.0
  84                   JUNCTION             -0.19      2.07       0.0
  86                   JUNCTION             -0.53      2.26       0.0
  88                   JUNCTION             -0.42      2.07       0.0
  89                   JUNCTION             -0.26      2.04       0.0
  9                    JUNCTION             -0.56      2.42       0.0
  J1                   JUNCTION              0.37      1.97       0.0
  J2                   JUNCTION              0.13      1.31       0.0
  J3                   JUNCTION              0.09      1.61       0.0
  J4                   JUNCTION              0.08      2.19       0.0
  NODE100              JUNCTION             -0.31      1.72       0.0
  NODE101              JUNCTION             -0.36      1.77       0.0
  NODE102              JUNCTION             -0.44      2.19       0.0
  NODE103              JUNCTION             -0.30      1.90       0.0
  NODE104              JUNCTION              0.06      2.19       0.0
  NODE105              JUNCTION             -0.10      2.59       0.0
  NODE106              JUNCTION             -0.13      2.50       0.0
  NODE107              JUNCTION             -0.07      1.90       0.0
  NODE108              JUNCTION             -0.18      1.85       0.0
  NODE109              JUNCTION              0.09      1.70       0.0
  NODE110              JUNCTION              0.18      2.10       0.0
  NODE111              JUNCTION             -0.82      2.32       0.0
  NODE113              JUNCTION             -0.84      2.92       0.0
  NODE115              JUNCTION              0.32      0.93       0.0
  NODE116              JUNCTION              0.30      1.00       0.0
  NODE117              JUNCTION              0.27      0.93       0.0
  NODE118              JUNCTION              0.18      1.69       0.0
  NODE119              JUNCTION              0.14      2.08       0.0
  NODE122              JUNCTION              0.15      1.10       0.0
  NODE123              JUNCTION              0.01      1.00       0.0
  NODE124              JUNCTION             -0.12      2.16       0.0
  NODE87               JUNCTION             -0.23      2.00       0.0
  NODE88               JUNCTION             -0.63      2.27       0.0
  NODE92               JUNCTION             -0.28      1.62       0.0
  NODE94               JUNCTION             -0.36      1.96       0.0
  NODE95               JUNCTION             -0.40      1.84       0.0
  NODE96               JUNCTION             -0.40      2.08       0.0
  NODE97               JUNCTION             -0.19      1.96       0.0
  NODE99               JUNCTION             -0.28      1.68       0.0
  NODE114              OUTFALL              -0.85      1.50       0.0
  NODE120              OUTFALL               0.28      0.90       0.0
  
  
  ************
  Link Summary
  ************
  Name             From Node        To Node          Type            Length    %Slope Roughness
  ---------------------------------------------------------------------------------------------
  10.1             10               17               CONDUIT           84.1    0.0511    0.0130
  11               17               18               CONDUIT           55.9    0.0519    0.0130
  12.1             18               12               CONDUIT           50.1    0.0519    0.0130
  13.1             12               13               CONDUIT           50.4    0.0496    0.0130
  14.1             6                7                CONDUIT           36.9    0.0515    0.0130
  15.1             7                8                CONDUIT           43.9    0.0502    0.0130
  16.1             8                9                CONDUIT           67.2    0.0506    0.0130
  17.1             13               19               CONDUIT          153.0    0.0510    0.0130
  18.1             24               22               CONDUIT           53.0    0.0509    0.0130
  19.1             22               23               CONDUIT           62.2    0.0498    0.0130
  2.1              3                2                CONDUIT           58.0    0.0517    0.0130
  20.1             23               20               CONDUIT           41.0    0.0512    0.0130
  21.1             20               21               CONDUIT           84.0    0.0512    0.0300
  22.1             21               13               CONDUIT           93.0    0.0505    0.0300
  23.1             25               24               CONDUIT           67.0    0.0507    0.0130
  24.1             27               25               CONDUIT           75.0    0.0520    0.0130
  25.1             NODE102          27               CONDUIT           64.0    0.0515    0.0130
  26.1             88               29               CONDUIT           60.0    0.0550    0.0130
  27.1             29               15               CONDUIT           41.2    0.0510    0.0130
  29.1             89               32               CONDUIT          187.5    0.0507    0.0130
  3.1              NODE101          3                CONDUIT           43.9    0.0524    0.0130
  30.1             32               31               CONDUIT           46.1    0.0520    0.0130
  31.1             31               30               CONDUIT          121.0    0.0496    0.0300
  32.1             30               20               CONDUIT          123.0    0.0512    0.0300
  33.1             38               33               CONDUIT           96.0    0.0500    0.0130
  34.1             33               34               CONDUIT           74.0    0.0500    0.0130
  35.1             34               23               CONDUIT           53.0    0.0509    0.0130
  36.1             35               25               CONDUIT           43.7    0.0526    0.0130
  37.1             41               40               CONDUIT          200.0    0.0500    0.0130
  38.1             40               39               CONDUIT          140.1    0.0507    0.0130
  39.1             39               31               CONDUIT          150.3    0.0506    0.0300
  4.1              NODE94           4                CONDUIT           41.0    0.0512    0.0130
  40.1             51               6                CONDUIT           68.7    0.0495    0.0110
  41.1             43               42               CONDUIT           60.0    0.0500    0.0130
  42.1             44               43               CONDUIT           70.0    0.0514    0.0130
  43.1             NODE87           45               CONDUIT           37.2    0.0511    0.0130
  44.1             45               46               CONDUIT           61.6    0.0519    0.0130
  45.1             46               47               CONDUIT           90.5    0.0497    0.0130
  46.1             47               48               CONDUIT           48.5    0.0516    0.0130
  47.1             48               49               CONDUIT           74.4    0.0497    0.0130
  48.1             49               52               CONDUIT           50.5    0.0495    0.0130
  49.1             52               51               CONDUIT           76.8    0.0521    0.0130
  5.1              NODE96           6                CONDUIT           35.8    0.0502    0.0130
  50               53               54               CONDUIT          167.3    0.0502    0.0300
  51.1             54               39               CONDUIT          107.0    0.0505    0.0300
  52.1             55               41               CONDUIT          218.2    0.0509    0.0130
  53.1             58               57               CONDUIT           41.6    0.0505    0.0130
  54.1             59               58               CONDUIT           81.2    0.0517    0.0130
  55.1             60               59               CONDUIT           55.8    0.0502    0.0130
  56.1             NODE100          60               CONDUIT           20.6    0.0534    0.0130
  57.1             67               4                CONDUIT           99.0    0.0515    0.0130
  58.1             56               1                CONDUIT           39.7    0.0504    0.0130
  59.1             1                35               CONDUIT           78.4    0.0497    0.0130
  6.1              16               15               CONDUIT           98.4    0.0508    0.0130
  60.1             2                62               CONDUIT           44.6    0.0516    0.0130
  61.1             64               63               CONDUIT           52.0    0.0519    0.0130
  62.1             NODE99           64               CONDUIT           43.8    0.0502    0.0130
  63.1             NODE92           65               CONDUIT           34.9    0.0515    0.0130
  64.1             NODE95           52               CONDUIT           37.3    0.0536    0.0130
  65.1             65               67               CONDUIT           75.2    0.0506    0.0130
  66.1             70               69               CONDUIT           50.0    0.0500    0.0130
  68               63               70               CONDUIT           60.1    0.0516    0.0130
  69.1             73               72               CONDUIT           68.6    0.0495    0.0130
  7.1              NODE88           15               CONDUIT           34.5    0.0522    0.0130
  70.1             74               73               CONDUIT           51.9    0.0521    0.0130
  72.1             NODE97           74               CONDUIT           35.8    0.0531    0.0130
  73.1             72               65               CONDUIT           51.0    0.0549    0.0130
  78.1             42               NODE103          CONDUIT           61.0    0.0508    0.0130
  79.1             84               44               CONDUIT           20.0    0.0549    0.0130
  8.1              14               9                CONDUIT           47.7    0.0524    0.0130
  83.1             15               22               CONDUIT           72.1    0.0596    0.0130
  85.1             86               23               CONDUIT          135.4    0.0502    0.0130
  86.1             4                88               CONDUIT           71.4    0.0504    0.0130
  9.1              9                10               CONDUIT           52.4    0.0496    0.0130
  C1               J1               NODE120          CONDUIT          127.5    0.0706    0.0130
  C2               NODE119          J2               CONDUIT           50.2    0.0199    0.0130
  C3               J2               J3               CONDUIT          127.8    0.0313    0.0130
  C4               J3               J4               CONDUIT           31.5    0.0318    0.0130
  C5               J4               NODE104          CONDUIT           73.9    0.0271    0.0300
  LINK100          NODE104          NODE105          CONDUIT          121.1    0.0496    0.0130
  LINK101          NODE105          NODE106          CONDUIT           26.3    0.1143    0.0130
  LINK102          NODE106          NODE107          CONDUIT           51.9    0.1350    0.0130
  LINK103          NODE107          NODE108          CONDUIT           26.9    0.4088    0.0130
  LINK104          NODE108          19               CONDUIT           51.2    0.5076    0.0130
  LINK105          NODE110          NODE109          CONDUIT          101.9    0.1080    0.0130
  LINK106          NODE109          NODE105          CONDUIT           12.2    1.5563    0.0130
  LINK107          19               NODE111          CONDUIT           51.0    0.0510    0.0300
  LINK108          NODE111          NODE113          CONDUIT           41.0    0.0561    0.0300
  LINK110          NODE113          NODE114          CONDUIT           20.0    0.0500    0.0300
  LINK111          NODE115          NODE116          CONDUIT           37.4    0.0535    0.0130
  LINK112          NODE116          NODE117          CONDUIT           78.4    0.0383    0.0130
  LINK113          NODE117          NODE118          CONDUIT          202.2    0.0445    0.0130
  LINK114          NODE118          NODE119          CONDUIT          139.6    0.0287    0.0130
  LINK118          NODE122          NODE123          CONDUIT          288.7    0.0502    0.0300
  LINK119          NODE123          NODE124          CONDUIT          255.6    0.0505    0.0300
  LINK120          NODE124          NODE104          CONDUIT          113.2   -0.1616    0.0300
  LINK84           69               58               CONDUIT           20.0    0.0500    0.0130
  LINK85           57               56               CONDUIT           31.7    0.0474    0.0130
  LINK96           NODE103          63               CONDUIT           43.0    0.0535    0.0130
  LINK98           62               1                CONDUIT           20.5    0.0489    0.0130
  
  
  *********************
  Cross Section Summary
  *********************
                                        Full     Full     Hyd.     Max.   No. of     Full
  Conduit          Shape               Depth     Area     Rad.    Width  Barrels     Flow
  ---------------------------------------------------------------------------------------
  10.1             CIRCULAR             0.90     0.64     0.23     0.90        1   409.25
  11               CIRCULAR             0.90     0.64     0.23     0.90        1   412.36
  12.1             CIRCULAR             0.90     0.64     0.23     0.90        1   412.47
  13.1             CIRCULAR             0.90     0.64     0.23     0.90        1   403.37
  14.1             CIRCULAR             0.75     0.44     0.19     0.75        1   252.60
  15.1             CIRCULAR             0.75     0.44     0.19     0.75        1   249.35
  16.1             CIRCULAR             0.75     0.44     0.19     0.75        1   250.43
  17.1             CIRCULAR             1.20     1.13     0.30     1.20        2   880.34
  18.1             CIRCULAR             1.05     0.87     0.26     1.05        1   616.38
  19.1             CIRCULAR             1.20     1.13     0.30     1.20        1   870.43
  2.1              CIRCULAR             0.60     0.28     0.15     0.60        1   139.65
  20.1             CIRCULAR             1.20     1.13     0.30     1.20        1   882.40
  21.1             TRAPEZOIDAL          1.50     6.75     0.82     7.50        1  4468.62
  22.1             TRAPEZOIDAL          1.50     6.75     0.82     7.50        1  4440.04
  23.1             CIRCULAR             1.05     0.87     0.26     1.05        1   615.19
  24.1             CIRCULAR             0.60     0.28     0.15     0.60        1   140.02
  25.1             CIRCULAR             0.60     0.28     0.15     0.60        1   139.40
  26.1             CIRCULAR             0.75     0.44     0.19     0.75        1   261.10
  27.1             CIRCULAR             0.75     0.44     0.19     0.75        1   251.42
  29.1             CIRCULAR             0.60     0.28     0.15     0.60        1   138.23
  3.1              CIRCULAR             0.60     0.28     0.15     0.60        1   140.62
  30.1             CIRCULAR             0.68     0.36     0.17     0.68        1   191.74
  31.1             TRAPEZOIDAL          1.20     2.88     0.63     3.60        1  1565.94
  32.1             TRAPEZOIDAL          1.20     2.88     0.63     3.60        1  1591.51
  33.1             CIRCULAR             0.60     0.28     0.15     0.60        1   137.31
  34.1             CIRCULAR             0.60     0.28     0.15     0.60        1   137.31
  35.1             CIRCULAR             0.60     0.28     0.15     0.60        1   138.59
  36.1             CIRCULAR             0.90     0.64     0.23     0.90        1   415.24
  37.1             CIRCULAR             1.05     0.87     0.26     1.05        1   610.58
  38.1             CIRCULAR             1.05     0.87     0.26     1.05        1   614.79
  39.1             TRAPEZOIDAL          1.20     2.88     0.63     3.60        1  1581.16
  4.1              CIRCULAR             0.60     0.28     0.15     0.60        1   138.90
  40.1             CIRCULAR             0.75     0.44     0.19     0.75        1   292.73
  41.1             CIRCULAR             0.60     0.28     0.15     0.60        1   137.31
  42.1             CIRCULAR             0.60     0.28     0.15     0.60        1   139.24
  43.1             CIRCULAR             0.60     0.28     0.15     0.60        1   138.81
  44.1             CIRCULAR             0.60     0.28     0.15     0.60        1   139.91
  45.1             CIRCULAR             0.60     0.28     0.15     0.60        1   136.92
  46.1             CIRCULAR             0.60     0.28     0.15     0.60        1   139.48
  47.1             CIRCULAR             0.60     0.28     0.15     0.60        1   136.90
  48.1             CIRCULAR             0.60     0.28     0.15     0.60        1   136.65
  49.1             CIRCULAR             0.75     0.44     0.19     0.75        1   254.08
  5.1              CIRCULAR             0.60     0.28     0.15     0.60        1   137.63
  50               TRAPEZOIDAL          1.20     2.88     0.63     3.60        1  1575.73
  51.1             TRAPEZOIDAL          1.20     2.88     0.63     3.60        1  1579.78
  52.1             CIRCULAR             1.05     0.87     0.26     1.05        1   615.90
  53.1             CIRCULAR             0.75     0.44     0.19     0.75        1   250.24
  54.1             CIRCULAR             0.60     0.28     0.15     0.60        1   139.64
  55.1             CIRCULAR             0.60     0.28     0.15     0.60        1   137.60
  56.1             CIRCULAR             0.60     0.28     0.15     0.60        1   141.93
  57.1             CIRCULAR             0.68     0.36     0.17     0.68        1   190.80
  58.1             CIRCULAR             0.90     0.64     0.23     0.90        1   406.30
  59.1             CIRCULAR             0.90     0.64     0.23     0.90        1   403.71
  6.1              CIRCULAR             0.60     0.28     0.15     0.60        1   138.41
  60.1             CIRCULAR             0.60     0.28     0.15     0.60        1   139.46
  61.1             CIRCULAR             0.60     0.28     0.15     0.60        1   139.92
  62.1             CIRCULAR             0.60     0.28     0.15     0.60        1   137.57
  63.1             CIRCULAR             0.60     0.28     0.15     0.60        1   139.39
  64.1             CIRCULAR             0.60     0.28     0.15     0.60        1   142.15
  65.1             CIRCULAR             0.60     0.28     0.15     0.60        1   138.06
  66.1             CIRCULAR             0.60     0.28     0.15     0.60        1   137.31
  68               CIRCULAR             0.60     0.28     0.15     0.60        1   139.42
  69.1             CIRCULAR             0.60     0.28     0.15     0.60        1   136.68
  7.1              CIRCULAR             0.60     0.28     0.15     0.60        1   140.30
  70.1             CIRCULAR             0.60     0.28     0.15     0.60        1   140.11
  72.1             CIRCULAR             0.60     0.28     0.15     0.60        1   141.52
  73.1             CIRCULAR             0.60     0.28     0.15     0.60        1   143.88
  78.1             CIRCULAR             0.60     0.28     0.15     0.60        1   138.39
  79.1             CIRCULAR             0.60     0.28     0.15     0.60        1   143.94
  8.1              CIRCULAR             0.60     0.28     0.15     0.60        1   140.56
  83.1             CIRCULAR             0.90     0.64     0.23     0.90        1   442.10
  85.1             CIRCULAR             0.60     0.28     0.15     0.60        1   137.62
  86.1             CIRCULAR             0.68     0.36     0.17     0.68        1   188.73
  9.1              CIRCULAR             0.90     0.64     0.23     0.90        1   403.16
  C1               CIRCULAR             0.90     0.64     0.23     0.90        1   480.96
  C2               CIRCULAR             0.68     0.36     0.17     0.68        1   118.65
  C3               CIRCULAR             0.68     0.36     0.17     0.68        1   148.72
  C4               CIRCULAR             0.68     0.36     0.17     0.68        1   149.88
  C5               TRAPEZOIDAL          1.00     2.00     0.52     3.00        1   711.63
  LINK100          CIRCULAR             0.90     0.64     0.23     0.90        1   403.01
  LINK101          CIRCULAR             0.90     0.64     0.23     0.90        1   612.03
  LINK102          CIRCULAR             0.90     0.64     0.23     0.90        1   665.14
  LINK103          CIRCULAR             0.90     0.64     0.23     0.90        1  1157.50
  LINK104          CIRCULAR             0.90     0.64     0.23     0.90        1  1289.88
  LINK105          CIRCULAR             0.60     0.28     0.15     0.60        1   201.79
  LINK106          CIRCULAR             0.60     0.28     0.15     0.60        1   766.03
  LINK107          TRAPEZOIDAL          1.50     6.75     0.82     7.50        1  4459.44
  LINK108          TRAPEZOIDAL          1.50     6.75     0.82     7.50        1  4677.90
  LINK110          TRAPEZOIDAL          1.50     6.75     0.82     7.50        1  4416.36
  LINK111          CIRCULAR             0.60     0.28     0.15     0.60        1   142.07
  LINK112          CIRCULAR             0.60     0.28     0.15     0.60        1   120.15
  LINK113          CIRCULAR             0.60     0.28     0.15     0.60        1   129.54
  LINK114          CIRCULAR             0.60     0.28     0.15     0.60        1   103.95
  LINK118          TRAPEZOIDAL          1.00     3.00     0.59     4.50        1  1572.20
  LINK119          TRAPEZOIDAL          1.00     3.00     0.59     4.50        1  1576.07
  LINK120          TRAPEZOIDAL          1.00     3.00     0.59     4.50        1  2820.48
  LINK84           CIRCULAR             0.68     0.36     0.17     0.68        1   187.97
  LINK85           CIRCULAR             0.75     0.44     0.19     0.75        1   242.30
  LINK96           CIRCULAR             0.60     0.28     0.15     0.60        1   142.01
  LINK98           CIRCULAR             0.60     0.28     0.15     0.60        1   135.75
  
  
  
  *********************************************************
  NOTE: The summary statistics displayed in this report are
  based on results found at every computational time step,  
  not just on results from each reporting time step.
  *********************************************************
  
  ****************
  Analysis Options
  ****************
  Flow Units ............... LPS
  Process Models:
    Rainfall/Runoff ........ YES
    RDII ................... NO
    Snowmelt ............... NO
    Groundwater ............ NO
    Flow Routing ........... YES
    Ponding Allowed ........ NO
    Water Quality .......... NO
  Infiltration Method ...... HORTON
  Flow Routing Method ...... DYNWAVE
  Surcharge Method ......... EXTRAN
  Starting Date ............ 01/01/2222 00:00:00
  Ending Date .............. 01/02/2222 00:00:00
  Antecedent Dry Days ...... 0.0
  Report Time Step ......... 00:01:00
  Wet Time Step ............ 00:05:00
  Dry Time Step ............ 01:00:00
  Routing Time Step ........ 1.00 sec
  Variable Time Step ....... YES
  Maximum Trials ........... 8
  Number of Threads ........ 1
  Head Tolerance ........... 0.001524 m
  
  
  **************************        Volume         Depth
  Runoff Quantity Continuity     hectare-m            mm
  **************************     ---------       -------
  Total Precipitation ......         2.901        24.692
  Evaporation Loss .........         0.000         0.000
  Infiltration Loss ........         0.884         7.528
  Surface Runoff ...........         1.992        16.954
  Final Storage ............         0.029         0.244
  Continuity Error (%) .....        -0.137
  
  
  **************************        Volume        Volume
  Flow Routing Continuity        hectare-m      10^6 ltr
  **************************     ---------     ---------
  Dry Weather Inflow .......         0.000         0.000
  Wet Weather Inflow .......         1.992        19.918
  Groundwater Inflow .......         0.000         0.000
  RDII Inflow ..............         0.000         0.000
  External Inflow ..........         0.000         0.000
  External Outflow .........         1.992        19.918
  Flooding Loss ............         0.000         0.000
  Evaporation Loss .........         0.000         0.000
  Exfiltration Loss ........         0.000         0.000
  Initial Stored Volume ....         0.000         0.000
  Final Stored Volume ......         0.014         0.139
  Continuity Error (%) .....        -0.695
  
  
  *************************
  Highest Continuity Errors
  *************************
  Node NODE124 (4.40%)
  Node NODE123 (2.20%)
  Node 54 (-1.21%)
  
  
  ***************************
  Time-Step Critical Elements
  ***************************
  None
  
  
  ********************************
  Highest Flow Instability Indexes
  ********************************
  All links are stable.
  
  
  *************************
  Routing Time Step Summary
  *************************
  Minimum Time Step           :     0.64 sec
  Average Time Step           :     1.00 sec
  Maximum Time Step           :     1.00 sec
  Percent in Steady State     :     0.00
  Average Iterations per Step :     2.03
  Percent Not Converging      :     0.42
  
  
  ***************************
  Subcatchment Runoff Summary
  ***************************
  
  ------------------------------------------------------------------------------------------------------------------------------
                            Total      Total      Total      Total     Imperv       Perv      Total       Total     Peak  Runoff
                           Precip      Runon       Evap      Infil     Runoff     Runoff     Runoff      Runoff   Runoff   Coeff
  Subcatchment                 mm         mm         mm         mm         mm         mm         mm    10^6 ltr      LPS
  ------------------------------------------------------------------------------------------------------------------------------
  AR-1                      24.69       0.00       0.00      17.28       7.35       0.00       7.35        0.64   186.16   0.298
  AR-2                      24.69       0.00       0.00      18.52       6.12       0.00       6.12        0.78   229.92   0.248
  AR-3                      24.69       0.00       0.00      20.99       3.68       0.00       3.68        0.15    49.43   0.149
  AR-4                      24.69       0.00       0.00      14.82       9.83       0.00       9.83        0.10    35.17   0.398
  AR-5                      24.69       0.00       0.00      19.75       4.92       0.00       4.92        0.15    49.33   0.199
  AR-6                      24.69       0.00       0.00      17.28       7.38       0.00       7.38        0.06    20.27   0.299
  HYATT-1                   24.69       0.00       0.00       2.47      21.96       0.00      21.96        0.72   167.95   0.889
  HYATT-2                   24.69       0.00       0.00       2.47      22.00       0.00      22.00        0.49   126.13   0.891
  SUBCATCH-1                24.69       0.00       0.00       3.70      20.85       0.00      20.85        0.12    37.85   0.844
  SUBCATCH-10               24.69       0.00       0.00       3.70      20.85       0.00      20.85        0.06    19.06   0.844
  SUBCATCH-11               24.69       0.00       0.00       3.70      20.85       0.00      20.85        0.08    24.34   0.844
  SUBCATCH-12               24.69       0.00       0.00       3.70      20.85       0.00      20.85        0.09    26.87   0.844
  SUBCATCH-13               24.69       0.00       0.00       3.70      20.85       0.00      20.85        0.13    39.65   0.844
  SUBCATCH-14               24.69       0.00       0.00       3.70      20.84       0.00      20.84        0.06    19.83   0.844
  SUBCATCH-15               24.69       0.00       0.00       3.70      20.85       0.00      20.85        0.10    30.75   0.844
  SUBCATCH-16               24.69       0.00       0.00       3.70      20.85       0.00      20.85        0.08    26.32   0.844
  SUBCATCH-17               24.69       0.00       0.00       3.70      20.85       0.00      20.85        0.11    33.39   0.844
  SUBCATCH-18               24.69       0.00       0.00       3.70      20.84       0.00      20.84        0.13    41.18   0.844
  SUBCATCH-19               24.69       0.00       0.00       3.70      20.85       0.00      20.85        0.07    23.01   0.844
  SUBCATCH-2                24.69       0.00       0.00       3.70      20.85       0.00      20.85        0.06    20.10   0.844
  SUBCATCH-20               24.69       0.00       0.00       3.70      20.85       0.00      20.85        0.04    11.27   0.844
  SUBCATCH-21               24.69       0.00       0.00       3.70      20.85       0.00      20.85        0.07    22.58   0.844
  SUBCATCH-22               24.69       0.00       0.00       3.70      20.85       0.00      20.85        0.11    33.20   0.844
  SUBCATCH-23               24.69       0.00       0.00       3.70      20.85       0.00      20.85        0.11    33.28   0.844
  SUBCATCH-24               24.69       0.00       0.00       3.70      20.85       0.00      20.85        0.05    17.14   0.844
  SUBCATCH-25               24.69       0.00       0.00       3.70      20.84       0.00      20.84        0.08    25.69   0.844
  SUBCATCH-26               24.69       0.00       0.00       3.70      20.85       0.00      20.85        0.20    62.51   0.844
  SUBCATCH-27               24.69       0.00       0.00       3.70      20.85       0.00      20.85        0.12    38.58   0.844
  SUBCATCH-28               24.69       0.00       0.00       3.70      20.85       0.00      20.85        0.10    31.30   0.844
  SUBCATCH-29               24.69       0.00       0.00       3.70      20.85       0.00      20.85        0.09    27.23   0.844
  SUBCATCH-3                24.69       0.00       0.00       3.70      20.85       0.00      20.85        0.09    27.72   0.844
  SUBCATCH-30               24.69       0.00       0.00       3.70      20.84       0.00      20.84        0.13    39.52   0.844
  SUBCATCH-31               24.69       0.00       0.00       3.70      20.84       0.00      20.84        0.12    36.15   0.844
  SUBCATCH-32               24.69       0.00       0.00       3.70      20.85       0.00      20.85        0.12    38.91   0.844
  SUBCATCH-33               24.69       0.00       0.00       3.70      20.85       0.00      20.85        0.04    13.12   0.844
  SUBCATCH-34               24.69       0.00       0.00       3.70      20.85       0.00      20.85        0.03    10.52   0.845
  SUBCATCH-35               24.69       0.00       0.00       3.70      20.85       0.00      20.85        0.09    27.38   0.844
  SUBCATCH-36               24.69       0.00       0.00       3.70      20.85       0.00      20.85        0.08    25.26   0.844
  SUBCATCH-37               24.69       0.00       0.00       3.70      20.85       0.00      20.85        0.09    28.97   0.844
  SUBCATCH-38               24.69       0.00       0.00       3.70      20.85       0.00      20.85        0.08    25.84   0.844
  SUBCATCH-39               24.69       0.00       0.00       3.70      20.84       0.00      20.84        0.09    29.36   0.844
  SUBCATCH-4                24.69       0.00       0.00       3.70      20.84       0.00      20.84        0.07    21.97   0.844
  SUBCATCH-40               24.69       0.00       0.00       3.70      20.85       0.00      20.85        0.09    28.54   0.844
  SUBCATCH-41               24.69       0.00       0.00       3.70      20.85       0.00      20.85        0.08    25.07   0.844
  SUBCATCH-42               24.69       0.00       0.00       3.70      20.85       0.00      20.85        0.08    24.73   0.844
  SUBCATCH-43               24.69       0.00       0.00       3.70      20.85       0.00      20.85        0.09    26.92   0.844
  SUBCATCH-44               24.69       0.00       0.00       3.70      20.85       0.00      20.85        0.07    23.36   0.844
  SUBCATCH-45               24.69       0.00       0.00       3.70      20.84       0.00      20.84        0.02     7.10   0.844
  SUBCATCH-46               24.69       0.00       0.00       3.70      20.85       0.00      20.85        0.13    39.38   0.844
  SUBCATCH-47               24.69       0.00       0.00       3.70      20.84       0.00      20.84        0.01     4.29   0.844
  SUBCATCH-48               24.69       0.00       0.00       3.70      20.82       0.00      20.82        0.34    99.03   0.843
  SUBCATCH-49               24.69       0.00       0.00       4.94      19.52       0.00      19.52        1.64   387.62   0.791
  SUBCATCH-5                24.69       0.00       0.00       3.70      20.85       0.00      20.85        0.07    20.48   0.844
  SUBCATCH-50               24.69       0.00       0.00       3.70      20.76       0.00      20.76        1.14   284.45   0.841
  SUBCATCH-51               24.69       0.00       0.00       3.70      20.62       0.00      20.62        8.56  1542.25   0.835
  SUBCATCH-52               24.69       0.00       0.00       3.70      20.85       0.00      20.85        0.20    63.46   0.844
  SUBCATCH-53               24.69       0.00       0.00       3.70      20.85       0.00      20.85        0.13    42.11   0.844
  SUBCATCH-54               24.69       0.00       0.00       3.70      20.85       0.00      20.85        0.18    55.14   0.844
  SUBCATCH-55               24.69       0.00       0.00       3.70      20.85       0.00      20.85        0.09    28.68   0.844
  SUBCATCH-56               24.69       0.00       0.00       3.70      20.84       0.00      20.84        0.10    30.55   0.844
  SUBCATCH-57               24.69       0.00       0.00       3.70      20.85       0.00      20.85        0.08    24.26   0.844
  SUBCATCH-58               24.69       0.00       0.00       3.70      20.85       0.00      20.85        0.12    36.15   0.844
  SUBCATCH-6                24.69       0.00       0.00       3.70      20.85       0.00      20.85        0.08    23.97   0.844
  SUBCATCH-7                24.69       0.00       0.00       3.70      20.85       0.00      20.85        0.24    73.53   0.844
  SUBCATCH-8                24.69       0.00       0.00       3.70      20.85       0.00      20.85        0.15    47.99   0.844
  SUBCATCH-9                24.69       0.00       0.00       3.70      20.84       0.00      20.84        0.05    16.63   0.844
  
  
  ******************
  Node Depth Summary
  ******************
  
  ---------------------------------------------------------------------------------
                                 Average  Maximum  Maximum  Time of Max    Reported
                                   Depth    Depth      HGL   Occurrence   Max Depth
  Node                 Type       Meters   Meters   Meters  days hr:min      Meters
  ---------------------------------------------------------------------------------
  1                    JUNCTION     0.10     1.03     0.58     0  02:14        1.00
  10                   JUNCTION     0.10     1.12     0.53     0  02:16        1.00
  12                   JUNCTION     0.15     1.07     0.38     0  02:16        1.06
  13                   JUNCTION     0.17     1.08     0.37     0  02:21        1.08
  14                   JUNCTION     0.08     1.09     0.55     0  02:16        0.95
  15                   JUNCTION     0.10     0.97     0.50     0  02:16        0.97
  16                   JUNCTION     0.09     0.94     0.51     0  02:16        0.93
  17                   JUNCTION     0.11     1.12     0.49     0  02:16        1.02
  18                   JUNCTION     0.12     1.10     0.44     0  02:16        1.04
  19                   JUNCTION     0.17     0.99     0.20     0  02:23        0.99
  2                    JUNCTION     0.09     1.02     0.60     0  02:14        0.99
  20                   JUNCTION     0.17     1.10     0.48     0  02:22        1.10
  21                   JUNCTION     0.16     1.09     0.43     0  02:21        1.09
  22                   JUNCTION     0.13     1.06     0.49     0  02:21        1.06
  23                   JUNCTION     0.15     1.09     0.48     0  02:21        1.09
  24                   JUNCTION     0.12     1.04     0.49     0  02:21        1.03
  25                   JUNCTION     0.11     1.01     0.50     0  02:15        1.01
  27                   JUNCTION     0.10     0.98     0.51     0  02:15        0.98
  29                   JUNCTION     0.09     1.11     0.66     0  02:09        0.97
  3                    JUNCTION     0.08     0.99     0.60     0  02:14        0.95
  30                   JUNCTION     0.18     1.11     0.63     0  02:22        1.11
  31                   JUNCTION     0.18     1.17     0.74     0  02:22        1.17
  32                   JUNCTION     0.13     1.09     0.74     0  02:21        1.09
  33                   JUNCTION     0.11     1.03     0.49     0  02:20        1.03
  34                   JUNCTION     0.13     1.06     0.49     0  02:21        1.06
  35                   JUNCTION     0.10     1.01     0.52     0  02:14        1.00
  38                   JUNCTION     0.10     0.98     0.49     0  02:20        0.98
  39                   JUNCTION     0.18     1.20     0.85     0  02:21        1.20
  4                    JUNCTION     0.08     1.24     0.85     0  02:09        0.94
  40                   JUNCTION     0.14     1.16     0.88     0  02:18        1.14
  41                   JUNCTION     0.11     1.10     0.92     0  02:16        1.07
  42                   JUNCTION     0.06     1.20     0.93     0  02:08        0.94
  43                   JUNCTION     0.05     1.28     1.04     0  02:08        0.91
  44                   JUNCTION     0.05     1.34     1.13     0  02:08        0.87
  45                   JUNCTION     0.04     1.51     1.26     0  02:14        0.81
  46                   JUNCTION     0.04     1.42     1.13     0  02:14        0.84
  47                   JUNCTION     0.05     1.35     1.02     0  02:14        0.87
  48                   JUNCTION     0.05     1.29     0.94     0  02:14        0.88
  49                   JUNCTION     0.06     1.14     0.75     0  02:15        0.91
  51                   JUNCTION     0.07     1.06     0.61     0  02:14        0.95
  52                   JUNCTION     0.06     1.09     0.67     0  02:15        0.93
  53                   JUNCTION     0.17     1.18     0.96     0  02:20        1.18
  54                   JUNCTION     0.17     1.20     0.90     0  02:21        1.20
  55                   JUNCTION     0.10     1.00     0.93     0  02:17        0.99
  56                   JUNCTION     0.09     1.02     0.59     0  02:14        0.98
  57                   JUNCTION     0.09     1.03     0.62     0  02:14        0.99
  58                   JUNCTION     0.09     1.05     0.66     0  02:08        0.99
  59                   JUNCTION     0.07     1.06     0.71     0  02:08        0.96
  6                    JUNCTION     0.08     0.99     0.50     0  02:16        0.97
  60                   JUNCTION     0.07     1.11     0.79     0  02:08        0.94
  62                   JUNCTION     0.09     1.03     0.59     0  02:14        0.99
  63                   JUNCTION     0.07     1.17     0.85     0  02:08        0.98
  64                   JUNCTION     0.07     1.22     0.93     0  02:08        0.96
  65                   JUNCTION     0.07     1.66     1.36     0  02:09        0.92
  67                   JUNCTION     0.07     1.47     1.13     0  02:09        0.92
  69                   JUNCTION     0.08     1.07     0.69     0  02:08        0.98
  7                    JUNCTION     0.08     1.02     0.51     0  02:16        0.97
  70                   JUNCTION     0.08     1.04     0.68     0  02:14        0.98
  72                   JUNCTION     0.06     1.69     1.42     0  02:09        0.90
  73                   JUNCTION     0.06     1.68     1.45     0  02:09        0.88
  74                   JUNCTION     0.05     1.63     1.42     0  02:09        0.86
  8                    JUNCTION     0.09     1.06     0.53     0  02:16        0.96
  84                   JUNCTION     0.05     1.35     1.15     0  02:08        0.86
  86                   JUNCTION     0.11     1.02     0.48     0  02:21        1.02
  88                   JUNCTION     0.09     1.20     0.77     0  02:09        0.94
  89                   JUNCTION     0.09     1.00     0.74     0  02:01        1.00
  9                    JUNCTION     0.09     1.10     0.54     0  02:16        0.98
  J1                   JUNCTION     0.02     0.21     0.58     0  02:15        0.21
  J2                   JUNCTION     0.06     0.50     0.63     0  02:22        0.50
  J3                   JUNCTION     0.07     0.53     0.62     0  02:24        0.53
  J4                   JUNCTION     0.07     0.53     0.61     0  02:23        0.53
  NODE100              JUNCTION     0.07     1.12     0.81     0  02:08        0.93
  NODE101              JUNCTION     0.07     0.96     0.60     0  02:14        0.93
  NODE102              JUNCTION     0.09     0.95     0.51     0  02:15        0.95
  NODE103              JUNCTION     0.07     1.19     0.89     0  02:08        0.96
  NODE104              JUNCTION     0.09     0.55     0.61     0  02:22        0.55
  NODE105              JUNCTION     0.18     0.64     0.54     0  02:22        0.63
  NODE106              JUNCTION     0.20     0.63     0.50     0  02:15        0.63
  NODE107              JUNCTION     0.07     0.44     0.37     0  02:17        0.44
  NODE108              JUNCTION     0.06     0.41     0.23     0  02:17        0.41
  NODE109              JUNCTION     0.04     0.43     0.52     0  02:24        0.43
  NODE110              JUNCTION     0.06     0.38     0.56     0  02:15        0.38
  NODE111              JUNCTION     0.16     0.91     0.09     0  02:23        0.91
  NODE113              JUNCTION     0.14     0.79    -0.05     0  02:23        0.79
  NODE115              JUNCTION     0.03     0.37     0.69     0  02:16        0.37
  NODE116              JUNCTION     0.03     0.39     0.69     0  02:17        0.39
  NODE117              JUNCTION     0.04     0.42     0.69     0  02:17        0.42
  NODE118              JUNCTION     0.05     0.47     0.65     0  02:19        0.47
  NODE119              JUNCTION     0.06     0.49     0.63     0  02:22        0.49
  NODE122              JUNCTION     0.06     0.53     0.68     0  02:16        0.53
  NODE123              JUNCTION     0.15     0.62     0.63     0  02:24        0.62
  NODE124              JUNCTION     0.26     0.74     0.62     0  02:24        0.74
  NODE87               JUNCTION     0.03     1.53     1.30     0  02:14        0.80
  NODE88               JUNCTION     0.57     1.15     0.52     0  02:15        1.13
  NODE92               JUNCTION     0.06     1.62     1.34     0  02:09        0.90
  NODE94               JUNCTION     0.07     1.29     0.92     0  02:09        0.92
  NODE95               JUNCTION     0.06     1.08     0.69     0  02:15        0.90
  NODE96               JUNCTION     0.43     0.91     0.51     0  02:16        0.89
  NODE97               JUNCTION     0.05     1.73     1.54     0  02:09        0.84
  NODE99               JUNCTION     0.06     1.24     0.97     0  02:08        0.94
  NODE114              OUTFALL      0.07     0.58    -0.27     0  02:23        0.58
  NODE120              OUTFALL      0.01     0.12     0.40     0  02:15        0.12
  
  
  *******************
  Node Inflow Summary
  *******************
  
  -------------------------------------------------------------------------------------------------
                                  Maximum  Maximum                  Lateral       Total        Flow
                                  Lateral    Total  Time of Max      Inflow      Inflow     Balance
                                   Inflow   Inflow   Occurrence      Volume      Volume       Error
  Node                 Type           LPS      LPS  days hr:min    10^6 ltr    10^6 ltr     Percent
  -------------------------------------------------------------------------------------------------
  1                    JUNCTION      0.00   412.40     0  02:14           0        1.31      -0.053
  10                   JUNCTION     30.75   263.98     0  02:17      0.0979       0.877      -0.060
  12                   JUNCTION     33.39   317.38     0  02:17       0.107        1.07      -0.064
  13                   JUNCTION      0.00  2638.70     0  02:18           0        16.4       0.037
  14                   JUNCTION      0.00     4.36     0  01:24           0     0.00705      -0.445
  15                   JUNCTION     36.15   366.70     0  02:15       0.115        1.14       0.198
  16                   JUNCTION     73.53    73.53     0  02:15       0.236       0.236      -0.198
  17                   JUNCTION     26.32   287.25     0  02:17      0.0842       0.961      -0.038
  18                   JUNCTION      0.00   289.07     0  02:17           0       0.962      -0.007
  19                   JUNCTION      0.00  3107.93     0  02:22           0        19.8      -0.008
  2                    JUNCTION      0.00    64.76     0  02:15           0       0.207       0.064
  20                   JUNCTION     23.01  2597.11     0  02:16      0.0733        15.4       0.056
  21                   JUNCTION      0.00  2493.36     0  02:16           0        15.4       0.029
  22                   JUNCTION     10.52   845.07     0  02:15      0.0332        2.84      -0.142
  23                   JUNCTION     24.39  1005.19     0  02:15       0.078        3.42       0.009
  24                   JUNCTION      0.00   509.14     0  02:14           0        1.66       0.020
  25                   JUNCTION     49.51   521.81     0  02:14       0.159        1.66      -0.016
  27                   JUNCTION     30.55    59.17     0  02:15      0.0983        0.19      -0.028
  29                   JUNCTION     20.48   222.44     0  02:15      0.0655       0.715      -0.026
  3                    JUNCTION     37.85    64.74     0  02:15       0.121       0.207      -0.078
  30                   JUNCTION      0.00  1913.21     0  02:22           0        11.9       0.001
  31                   JUNCTION      0.00  1968.86     0  02:17           0        11.9       0.023
  32                   JUNCTION    128.01   128.01     0  02:15       0.431        0.46       0.357
  33                   JUNCTION     36.15    75.68     0  02:15       0.116       0.244       0.043
  34                   JUNCTION     38.91   114.61     0  02:15       0.124       0.368      -0.014
  35                   JUNCTION      0.00   413.39     0  02:14           0        1.32       0.002
  38                   JUNCTION     39.52    39.52     0  02:15       0.127       0.127      -0.185
  39                   JUNCTION      0.00  1984.43     0  02:17           0        11.5       0.035
  4                    JUNCTION      0.00   180.13     0  02:15           0       0.578       0.012
  40                   JUNCTION      0.00   358.83     0  02:16           0        1.67       0.145
  41                   JUNCTION      0.00   377.29     0  02:17           0        1.65       0.006
  42                   JUNCTION     23.36    35.17     0  02:14      0.0746       0.131      -0.085
  43                   JUNCTION      7.10    30.73     0  02:07      0.0232      0.0616      -0.204
  44                   JUNCTION      4.29    32.40     0  02:08      0.0139      0.0258      -0.662
  45                   JUNCTION     22.58    41.99     0  02:14      0.0722      0.0785      -0.408
  46                   JUNCTION      0.00    28.98     0  02:15           0      0.0839      -0.085
  47                   JUNCTION     33.20    64.17     0  02:15       0.107       0.191      -0.199
  48                   JUNCTION      0.00    64.75     0  02:14           0       0.186      -0.018
  49                   JUNCTION     33.28    99.42     0  02:14       0.106       0.292      -0.101
  51                   JUNCTION     47.99   181.48     0  02:15       0.153       0.522      -0.089
  52                   JUNCTION     25.69   126.99     0  02:14      0.0829       0.375      -0.094
  53                   JUNCTION   1542.25  1542.25     0  02:15        8.56        8.56      -0.005
  54                   JUNCTION    284.45  1751.66     0  02:15        1.14         9.7      -1.199
  55                   JUNCTION    387.62   387.62     0  02:15        1.64        1.64      -0.171
  56                   JUNCTION     25.84   307.20     0  02:14      0.0822       0.981      -0.016
  57                   JUNCTION     29.36   281.40     0  02:14      0.0946       0.899      -0.023
  58                   JUNCTION      0.00   252.09     0  02:14           0       0.804      -0.021
  59                   JUNCTION     39.38    83.95     0  02:14       0.125       0.268      -0.091
  6                    JUNCTION     16.63   202.53     0  02:15      0.0535       0.582       0.102
  60                   JUNCTION     27.38    44.71     0  02:14      0.0874       0.142      -0.062
  62                   JUNCTION     39.65   104.56     0  02:15       0.127       0.334      -0.019
  63                   JUNCTION     25.07   139.17     0  02:14      0.0799       0.444      -0.039
  64                   JUNCTION     51.97    52.06     0  02:14       0.166       0.172      -0.094
  65                   JUNCTION     31.30   132.34     0  02:15      0.0997        0.43      -0.067
  67                   JUNCTION     20.10   152.52     0  02:15      0.0643       0.489      -0.089
  69                   JUNCTION     28.54   167.87     0  02:14      0.0914       0.536      -0.024
  7                    JUNCTION     19.06   206.77     0  02:17       0.061       0.636      -0.032
  70                   JUNCTION      0.00   139.37     0  02:14           0       0.444       0.032
  72                   JUNCTION     38.58   101.09     0  02:15       0.124       0.324      -0.077
  73                   JUNCTION      0.00    62.53     0  02:15           0       0.201      -0.032
  74                   JUNCTION     62.51    62.54     0  02:15         0.2       0.206      -0.145
  8                    JUNCTION     24.34   226.10     0  02:17      0.0778       0.714      -0.058
  84                   JUNCTION      0.00    19.73     0  02:08           0     0.00303      -2.135
  86                   JUNCTION     41.18    41.18     0  02:15       0.133       0.133      -0.320
  88                   JUNCTION     21.97   202.06     0  02:15      0.0711       0.649      -0.044
  89                   JUNCTION      0.00    41.65     0  01:37           0      0.0282       0.886
  9                    JUNCTION     19.83   242.38     0  02:16      0.0637       0.786      -0.020
  J1                   JUNCTION     49.43    49.43     0  02:15       0.149       0.149      -0.003
  J2                   JUNCTION      0.00   114.15     0  02:17           0       0.514      -0.114
  J3                   JUNCTION      0.00   107.43     0  02:17           0       0.515       0.115
  J4                   JUNCTION      0.00   100.57     0  02:18           0       0.515      -0.020
  NODE100              JUNCTION     17.14    17.14     0  02:15      0.0549      0.0549      -0.079
  NODE101              JUNCTION     26.87    26.87     0  02:15      0.0859      0.0859      -0.079
  NODE102              JUNCTION     28.68    28.68     0  02:15      0.0917      0.0917      -0.144
  NODE103              JUNCTION     26.92    62.13     0  02:14       0.086       0.202      -0.034
  NODE104              JUNCTION     20.27   343.19     0  02:22       0.059        2.17       0.128
  NODE105              JUNCTION      0.00   552.47     0  02:22           0        2.65      -0.189
  NODE106              JUNCTION      0.00   476.60     0  02:19           0        2.63       0.036
  NODE107              JUNCTION    167.95   555.17     0  02:16       0.716        3.34      -0.004
  NODE108              JUNCTION      0.00   543.22     0  02:17           0        3.34       0.049
  NODE109              JUNCTION      0.00   238.68     0  02:07           0       0.509       0.120
  NODE110              JUNCTION    126.13   126.13     0  02:15       0.487       0.487      -0.115
  NODE111              JUNCTION      0.00  3104.28     0  02:23           0        19.8       0.010
  NODE113              JUNCTION      0.00  3102.32     0  02:23           0        19.8       0.008
  NODE115              JUNCTION      0.00     2.81     0  01:22           0     0.00351       0.374
  NODE116              JUNCTION     63.46    63.46     0  02:15       0.203       0.207      -0.074
  NODE117              JUNCTION     42.11    97.54     0  02:15       0.135       0.338      -0.371
  NODE118              JUNCTION      0.00    85.29     0  02:16           0       0.341       0.475
  NODE119              JUNCTION     55.14   120.87     0  02:15       0.176       0.516      -0.068
  NODE122              JUNCTION    451.25   451.25     0  02:15        1.52        1.52      -0.763
  NODE123              JUNCTION     49.33   430.30     0  02:15       0.147        1.67       2.251
  NODE124              JUNCTION      0.00   299.40     0  02:18           0        1.67       4.598
  NODE87               JUNCTION      0.00    37.79     0  02:14           0     0.00585      -1.366
  NODE88               JUNCTION     23.97    25.76     0  02:10      0.0769      0.0769       1.466
  NODE92               JUNCTION      0.00    17.48     0  02:09           0     0.00512      -1.965
  NODE94               JUNCTION     27.72    27.72     0  02:15      0.0886      0.0886      -0.164
  NODE95               JUNCTION      0.00     3.42     0  02:14           0      0.0055      -1.441
  NODE96               JUNCTION      0.00    49.73     0  02:15           0     0.00601       7.057
  NODE97               JUNCTION      0.00    37.01     0  02:09           0     0.00537      -1.820
  NODE99               JUNCTION      0.00     9.48     0  02:08           0     0.00645      -0.556
  NODE114              OUTFALL       0.00  3101.57     0  02:23           0        19.8       0.000
  NODE120              OUTFALL       0.00    47.74     0  02:15           0       0.149       0.000
  
  
  **********************
  Node Surcharge Summary
  **********************
  
  Surcharging occurs when water rises above the top of the highest conduit.
  ---------------------------------------------------------------------
                                               Max. Height   Min. Depth
                                   Hours       Above Crown    Below Rim
  Node                 Type      Surcharged         Meters       Meters
  ---------------------------------------------------------------------
  1                    JUNCTION        0.31          0.126        0.936
  10                   JUNCTION        0.32          0.221        1.263
  12                   JUNCTION        0.66          0.170        1.809
  14                   JUNCTION        1.19          0.486        1.084
  16                   JUNCTION        1.25          0.338        1.175
  17                   JUNCTION        0.45          0.222        1.164
  18                   JUNCTION        0.57          0.201        1.882
  2                    JUNCTION        1.24          0.419        0.901
  27                   JUNCTION        1.43          0.383        0.918
  29                   JUNCTION        0.82          0.364        1.073
  3                    JUNCTION        1.13          0.389        1.017
  32                   JUNCTION        1.60          0.419        0.933
  33                   JUNCTION        1.70          0.428        1.333
  34                   JUNCTION        1.86          0.462        1.417
  35                   JUNCTION        0.41          0.110        0.973
  38                   JUNCTION        1.50          0.381        1.201
  39                   JUNCTION        0.03          0.002        1.617
  4                    JUNCTION        0.86          0.562        0.607
  40                   JUNCTION        0.39          0.108        1.116
  41                   JUNCTION        0.14          0.048        0.904
  42                   JUNCTION        0.78          0.601        0.784
  43                   JUNCTION        0.68          0.683        0.736
  44                   JUNCTION        0.57          0.739        0.725
  45                   JUNCTION        0.25          0.909        0.000
  46                   JUNCTION        0.34          0.818        0.459
  47                   JUNCTION        0.51          0.748        0.683
  48                   JUNCTION        0.60          0.694        0.705
  49                   JUNCTION        0.71          0.536        0.696
  51                   JUNCTION        0.40          0.313        0.876
  52                   JUNCTION        0.30          0.340        0.965
  56                   JUNCTION        0.28          0.120        0.895
  57                   JUNCTION        0.71          0.279        0.954
  58                   JUNCTION        0.66          0.303        0.788
  59                   JUNCTION        1.01          0.456        0.764
  60                   JUNCTION        0.92          0.508        0.595
  62                   JUNCTION        1.32          0.428        0.938
  63                   JUNCTION        0.94          0.571        0.555
  64                   JUNCTION        0.86          0.625        0.559
  65                   JUNCTION        0.83          1.061        0.000
  67                   JUNCTION        0.70          0.795        0.270
  69                   JUNCTION        0.87          0.395        0.768
  7                    JUNCTION        0.59          0.266        1.075
  70                   JUNCTION        1.04          0.439        0.696
  72                   JUNCTION        0.75          1.091        0.015
  73                   JUNCTION        0.64          1.083        0.106
  74                   JUNCTION        0.56          1.032        0.000
  8                    JUNCTION        0.66          0.306        0.897
  84                   JUNCTION        0.54          0.748        0.718
  86                   JUNCTION        1.67          0.418        1.244
  88                   JUNCTION        0.73          0.446        0.874
  89                   JUNCTION        1.52          0.399        1.045
  9                    JUNCTION        0.26          0.202        1.320
  NODE100              JUNCTION        0.89          0.516        0.602
  NODE101              JUNCTION        1.04          0.365        0.803
  NODE102              JUNCTION        1.30          0.350        1.243
  NODE103              JUNCTION        0.87          0.594        0.706
  NODE87               JUNCTION        0.14          0.932        0.463
  NODE92               JUNCTION        0.78          1.016        0.000
  NODE94               JUNCTION        1.04          0.689        0.671
  NODE95               JUNCTION        0.73          0.480        0.761
  NODE97               JUNCTION        0.48          1.126        0.231
  NODE99               JUNCTION        0.80          0.643        0.438
  
  
  *********************
  Node Flooding Summary
  *********************
  
  Flooding refers to all water that overflows a node, whether it ponds or not.
  --------------------------------------------------------------------------
                                                             Total   Maximum
                                 Maximum   Time of Max       Flood    Ponded
                        Hours       Rate    Occurrence      Volume     Depth
  Node                 Flooded       LPS   days hr:min    10^6 ltr    Meters
  --------------------------------------------------------------------------
  45                      0.01     35.92      0  02:14       0.000     0.000
  65                      0.01      6.73      0  02:09       0.000     0.000
  74                      0.01      9.89      0  02:09       0.000     0.000
  NODE92                  0.01      4.54      0  02:09       0.000     0.000
  
  
  ***********************
  Outfall Loading Summary
  ***********************
  
  -----------------------------------------------------------
                         Flow       Avg       Max       Total
                         Freq      Flow      Flow      Volume
  Outfall Node           Pcnt       LPS       LPS    10^6 ltr
  -----------------------------------------------------------
  NODE114               94.20    242.91   3101.57      19.768
  NODE120               23.88      7.22     47.74       0.149
  -----------------------------------------------------------
  System                59.04    250.13   3121.99      19.918
  
  
  ********************
  Link Flow Summary
  ********************
  
  -----------------------------------------------------------------------------
                                 Maximum  Time of Max   Maximum    Max/    Max/
                                  |Flow|   Occurrence   |Veloc|    Full    Full
  Link                 Type          LPS  days hr:min     m/sec    Flow   Depth
  -----------------------------------------------------------------------------
  10.1                 CONDUIT    265.78     0  02:17      0.55    0.65    1.00
  11                   CONDUIT    289.07     0  02:17      0.59    0.70    1.00
  12.1                 CONDUIT    289.89     0  02:17      0.58    0.70    1.00
  13.1                 CONDUIT    317.75     0  02:17      0.84    0.79    1.00
  14.1                 CONDUIT    191.75     0  02:17      0.44    0.76    1.00
  15.1                 CONDUIT    206.92     0  02:17      0.48    0.83    1.00
  16.1                 CONDUIT    226.10     0  02:17      0.54    0.90    1.00
  17.1                 CONDUIT   2605.03     0  02:21      1.26    1.48    0.86
  18.1                 CONDUIT    503.19     0  02:15      0.58    0.82    0.99
  19.1                 CONDUIT    834.06     0  02:15      0.80    0.96    0.89
  2.1                  CONDUIT     64.76     0  02:15      0.36    0.46    1.00
  20.1                 CONDUIT    992.09     0  02:15      1.08    1.12    0.91
  21.1                 CONDUIT   2493.36     0  02:16      0.67    0.56    0.73
  22.1                 CONDUIT   2454.97     0  02:22      0.64    0.55    0.72
  23.1                 CONDUIT    509.14     0  02:14      0.60    0.83    0.97
  24.1                 CONDUIT     59.27     0  02:15      0.28    0.42    1.00
  25.1                 CONDUIT     28.62     0  02:15      0.22    0.21    1.00
  26.1                 CONDUIT    201.96     0  02:15      0.46    0.77    1.00
  27.1                 CONDUIT    222.64     0  02:15      0.50    0.89    1.00
  29.1                 CONDUIT     41.65     0  01:37      0.26    0.30    1.00
  3.1                  CONDUIT     26.96     0  02:15      0.18    0.19    1.00
  30.1                 CONDUIT    128.09     0  02:15      0.71    0.67    1.00
  31.1                 CONDUIT   1913.21     0  02:22      0.72    1.22    0.95
  32.1                 CONDUIT   1914.41     0  02:23      0.80    1.20    0.89
  33.1                 CONDUIT     39.53     0  02:15      0.25    0.29    1.00
  34.1                 CONDUIT     75.70     0  02:15      0.29    0.55    1.00
  35.1                 CONDUIT    114.57     0  02:15      0.41    0.83    1.00
  36.1                 CONDUIT    413.54     0  02:14      0.65    1.00    1.00
  37.1                 CONDUIT    358.83     0  02:16      0.57    0.59    1.00
  38.1                 CONDUIT    360.09     0  02:17      0.45    0.59    1.00
  39.1                 CONDUIT   1870.06     0  02:18      0.68    1.18    0.99
  4.1                  CONDUIT     27.79     0  02:14      0.35    0.20    1.00
  40.1                 CONDUIT    185.91     0  02:15      0.43    0.64    1.00
  41.1                 CONDUIT     25.47     0  02:07      0.15    0.19    1.00
  42.1                 CONDUIT     29.10     0  02:08      0.13    0.21    1.00
  43.1                 CONDUIT     37.79     0  02:14      0.13    0.27    1.00
  44.1                 CONDUIT     28.98     0  02:15      0.31    0.21    1.00
  45.1                 CONDUIT     30.96     0  02:15      0.14    0.23    1.00
  46.1                 CONDUIT     64.75     0  02:14      0.35    0.46    1.00
  47.1                 CONDUIT     66.19     0  02:14      0.23    0.48    1.00
  48.1                 CONDUIT    100.30     0  02:14      0.35    0.73    1.00
  49.1                 CONDUIT    133.55     0  02:15      0.33    0.53    1.00
  5.1                  CONDUIT     49.73     0  02:15      0.31    0.36    0.73
  50                   CONDUIT   1480.25     0  02:16      0.54    0.94    0.99
  51.1                 CONDUIT   1631.40     0  02:16      0.61    1.03    1.00
  52.1                 CONDUIT    377.29     0  02:17      0.65    0.61    0.98
  53.1                 CONDUIT    252.15     0  02:14      0.57    1.01    1.00
  54.1                 CONDUIT     83.98     0  02:14      0.35    0.60    1.00
  55.1                 CONDUIT     44.68     0  02:14      0.24    0.32    1.00
  56.1                 CONDUIT     17.45     0  02:08      0.12    0.12    1.00
  57.1                 CONDUIT    152.42     0  02:15      0.45    0.80    1.00
  58.1                 CONDUIT    308.16     0  02:14      0.48    0.76    1.00
  59.1                 CONDUIT    413.39     0  02:14      0.65    1.02    1.00
  6.1                  CONDUIT     73.55     0  02:15      0.40    0.53    1.00
  60.1                 CONDUIT     64.91     0  02:15      0.23    0.47    1.00
  61.1                 CONDUIT     52.07     0  02:14      0.26    0.37    1.00
  62.1                 CONDUIT      9.48     0  02:08      0.11    0.07    1.00
  63.1                 CONDUIT     17.48     0  02:09      0.12    0.13    1.00
  64.1                 CONDUIT      3.42     0  02:14      0.12    0.02    1.00
  65.1                 CONDUIT    132.48     0  02:15      0.49    0.96    1.00
  66.1                 CONDUIT    139.40     0  02:14      0.49    1.02    1.00
  68                   CONDUIT    139.37     0  02:14      0.49    1.00    1.00
  69.1                 CONDUIT     62.53     0  02:15      0.28    0.46    1.00
  7.1                  CONDUIT     40.09     0  02:11      0.47    0.29    0.97
  70.1                 CONDUIT     62.53     0  02:15      0.41    0.45    1.00
  72.1                 CONDUIT     37.01     0  02:09      0.13    0.26    1.00
  73.1                 CONDUIT    101.12     0  02:15      0.41    0.70    1.00
  78.1                 CONDUIT     35.27     0  02:14      0.13    0.25    1.00
  79.1                 CONDUIT     19.73     0  02:08      0.08    0.14    1.00
  8.1                  CONDUIT      4.36     0  01:24      0.16    0.03    1.00
  83.1                 CONDUIT    336.81     0  02:14      0.59    0.76    1.00
  85.1                 CONDUIT     41.20     0  02:15      0.25    0.30    1.00
  86.1                 CONDUIT    180.12     0  02:15      0.50    0.95    1.00
  9.1                  CONDUIT    239.17     0  02:17      0.49    0.59    1.00
  C1                   CONDUIT     47.74     0  02:15      0.60    0.10    0.18
  C2                   CONDUIT    114.15     0  02:17      0.48    0.96    0.73
  C3                   CONDUIT    107.43     0  02:17      0.54    0.72    0.76
  C4                   CONDUIT    100.57     0  02:18      0.64    0.67    0.78
  C5                   CONDUIT     94.88     0  02:22      0.33    0.13    0.54
  LINK100              CONDUIT    351.52     0  02:23      0.90    0.87    0.60
  LINK101              CONDUIT    476.60     0  02:19      1.06    0.78    0.68
  LINK102              CONDUIT    419.39     0  02:24      1.28    0.63    0.52
  LINK103              CONDUIT    543.22     0  02:17      1.85    0.47    0.47
  LINK104              CONDUIT    540.52     0  02:17      1.61    0.42    0.58
  LINK105              CONDUIT    130.65     0  02:15      0.89    0.65    0.65
  LINK106              CONDUIT    276.19     0  02:06      1.34    0.36    0.84
  LINK107              CONDUIT   3104.28     0  02:23      0.96    0.70    0.63
  LINK108              CONDUIT   3102.32     0  02:23      1.14    0.66    0.57
  LINK110              CONDUIT   3101.57     0  02:23      1.58    0.70    0.46
  LINK111              CONDUIT      2.81     0  01:22      0.12    0.02    0.64
  LINK112              CONDUIT     55.86     0  02:15      0.30    0.46    0.67
  LINK113              CONDUIT     85.29     0  02:16      0.50    0.66    0.74
  LINK114              CONDUIT     77.74     0  02:18      0.33    0.75    0.80
  LINK118              CONDUIT    387.44     0  02:16      0.38    0.25    0.57
  LINK119              CONDUIT    299.40     0  02:18      0.33    0.19    0.68
  LINK120              CONDUIT    248.13     0  02:25      0.22    0.09    0.64
  LINK84               CONDUIT    168.21     0  02:14      0.47    0.89    1.00
  LINK85               CONDUIT    281.44     0  02:14      0.64    1.16    1.00
  LINK96               CONDUIT     62.13     0  02:14      0.22    0.44    1.00
  LINK98               CONDUIT    104.50     0  02:15      0.37    0.77    1.00
  
  
  ***************************
  Flow Classification Summary
  ***************************
  
  -------------------------------------------------------------------------------------
                      Adjusted    ---------- Fraction of Time in Flow Class ---------- 
                       /Actual         Up    Down  Sub   Sup   Up    Down  Norm  Inlet 
  Conduit               Length    Dry  Dry   Dry   Crit  Crit  Crit  Crit  Ltd   Ctrl  
  -------------------------------------------------------------------------------------
  10.1                    1.00   0.05  0.00  0.00  0.95  0.00  0.00  0.00  0.67  0.00
  11                      1.00   0.05  0.00  0.00  0.95  0.00  0.00  0.00  0.56  0.00
  12.1                    1.00   0.05  0.00  0.00  0.95  0.00  0.00  0.00  0.38  0.00
  13.1                    1.00   0.05  0.00  0.00  0.95  0.00  0.00  0.00  0.00  0.00
  14.1                    1.00   0.05  0.00  0.00  0.95  0.00  0.00  0.00  0.75  0.00
  15.1                    1.00   0.05  0.00  0.00  0.95  0.00  0.00  0.00  0.74  0.00
  16.1                    1.00   0.05  0.00  0.00  0.95  0.00  0.00  0.00  0.15  0.00
  17.1                    1.00   0.05  0.00  0.00  0.95  0.00  0.00  0.00  0.24  0.00
  18.1                    1.00   0.05  0.00  0.00  0.95  0.00  0.00  0.00  0.59  0.00
  19.1                    1.00   0.05  0.00  0.00  0.95  0.00  0.00  0.00  0.49  0.00
  2.1                     1.00   0.05  0.00  0.00  0.95  0.00  0.00  0.00  0.74  0.00
  20.1                    1.00   0.05  0.00  0.00  0.95  0.00  0.00  0.00  0.10  0.00
  21.1                    1.00   0.05  0.00  0.00  0.95  0.00  0.00  0.00  0.52  0.00
  22.1                    1.00   0.05  0.00  0.00  0.95  0.00  0.00  0.00  0.53  0.00
  23.1                    1.00   0.05  0.00  0.00  0.95  0.00  0.00  0.00  0.65  0.00
  24.1                    1.00   0.05  0.00  0.00  0.95  0.00  0.00  0.00  0.70  0.00
  25.1                    1.00   0.05  0.00  0.00  0.95  0.00  0.00  0.00  0.71  0.00
  26.1                    1.00   0.05  0.00  0.00  0.95  0.00  0.00  0.00  0.74  0.00
  27.1                    1.00   0.05  0.00  0.00  0.95  0.00  0.00  0.00  0.70  0.00
  29.1                    1.00   0.05  0.47  0.00  0.48  0.00  0.00  0.00  0.70  0.00
  3.1                     1.00   0.05  0.00  0.00  0.95  0.00  0.00  0.00  0.75  0.00
  30.1                    1.00   0.05  0.00  0.00  0.55  0.00  0.00  0.41  0.12  0.00
  31.1                    1.00   0.05  0.00  0.00  0.95  0.00  0.00  0.00  0.50  0.00
  32.1                    1.00   0.05  0.00  0.00  0.32  0.00  0.00  0.63  0.00  0.00
  33.1                    1.00   0.05  0.00  0.00  0.95  0.00  0.00  0.00  0.67  0.00
  34.1                    1.00   0.05  0.00  0.00  0.95  0.00  0.00  0.00  0.60  0.00
  35.1                    1.00   0.05  0.00  0.00  0.95  0.00  0.00  0.00  0.43  0.00
  36.1                    1.00   0.05  0.00  0.00  0.95  0.00  0.00  0.00  0.68  0.00
  37.1                    1.00   0.05  0.00  0.00  0.95  0.00  0.00  0.00  0.74  0.00
  38.1                    1.00   0.05  0.00  0.00  0.95  0.00  0.00  0.01  0.61  0.00
  39.1                    1.00   0.05  0.01  0.00  0.95  0.00  0.00  0.00  0.63  0.00
  4.1                     1.00   0.05  0.00  0.00  0.95  0.00  0.00  0.00  0.74  0.00
  40.1                    1.00   0.05  0.00  0.00  0.95  0.00  0.00  0.00  0.76  0.00
  41.1                    1.00   0.05  0.00  0.00  0.95  0.00  0.00  0.00  0.80  0.00
  42.1                    1.00   0.05  0.00  0.00  0.95  0.00  0.00  0.00  0.81  0.00
  43.1                    1.00   0.05  0.77  0.00  0.18  0.00  0.00  0.00  0.82  0.00
  44.1                    1.00   0.05  0.00  0.00  0.95  0.00  0.00  0.00  0.82  0.00
  45.1                    1.00   0.05  0.00  0.00  0.95  0.00  0.00  0.00  0.82  0.00
  46.1                    1.00   0.05  0.00  0.00  0.95  0.00  0.00  0.00  0.80  0.00
  47.1                    1.00   0.05  0.00  0.00  0.95  0.00  0.00  0.00  0.80  0.00
  48.1                    1.00   0.05  0.00  0.00  0.95  0.00  0.00  0.00  0.41  0.00
  49.1                    1.00   0.05  0.00  0.00  0.95  0.00  0.00  0.00  0.79  0.00
  5.1                     1.00   0.09  0.00  0.00  0.05  0.00  0.00  0.86  0.00  0.00
  50                      1.00   0.05  0.00  0.00  0.95  0.00  0.00  0.00  0.65  0.00
  51.1                    1.00   0.05  0.00  0.00  0.95  0.00  0.00  0.00  0.57  0.00
  52.1                    1.00   0.05  0.00  0.00  0.95  0.00  0.00  0.00  0.79  0.00
  53.1                    1.00   0.05  0.00  0.00  0.95  0.00  0.00  0.00  0.74  0.00
  54.1                    1.00   0.05  0.00  0.00  0.95  0.00  0.00  0.00  0.76  0.00
  55.1                    1.00   0.05  0.00  0.00  0.95  0.00  0.00  0.00  0.77  0.00
  56.1                    1.00   0.05  0.00  0.00  0.95  0.00  0.00  0.00  0.76  0.00
  57.1                    1.00   0.05  0.00  0.00  0.95  0.00  0.00  0.00  0.77  0.00
  58.1                    1.00   0.05  0.00  0.00  0.95  0.00  0.00  0.00  0.36  0.00
  59.1                    1.00   0.05  0.00  0.00  0.95  0.00  0.00  0.00  0.47  0.00
  6.1                     1.00   0.05  0.00  0.00  0.95  0.00  0.00  0.00  0.73  0.00
  60.1                    1.00   0.05  0.00  0.00  0.95  0.00  0.00  0.00  0.73  0.00
  61.1                    1.00   0.05  0.00  0.00  0.95  0.00  0.00  0.00  0.77  0.00
  62.1                    1.00   0.05  0.72  0.00  0.23  0.00  0.00  0.00  0.77  0.00
  63.1                    1.00   0.05  0.71  0.00  0.24  0.00  0.00  0.00  0.74  0.00
  64.1                    1.00   0.05  0.72  0.00  0.23  0.00  0.00  0.00  0.76  0.00
  65.1                    1.00   0.05  0.00  0.00  0.95  0.00  0.00  0.00  0.65  0.00
  66.1                    1.00   0.05  0.00  0.00  0.95  0.00  0.00  0.00  0.75  0.00
  68                      1.00   0.05  0.00  0.00  0.95  0.00  0.00  0.00  0.77  0.00
  69.1                    1.00   0.05  0.00  0.00  0.95  0.00  0.00  0.00  0.80  0.00
  7.1                     1.00   0.05  0.00  0.00  0.10  0.00  0.00  0.85  0.00  0.00
  70.1                    1.00   0.05  0.00  0.00  0.95  0.00  0.00  0.00  0.80  0.00
  72.1                    1.00   0.05  0.75  0.00  0.20  0.00  0.00  0.00  0.80  0.00
  73.1                    1.00   0.05  0.00  0.00  0.95  0.00  0.00  0.00  0.78  0.00
  78.1                    1.00   0.05  0.00  0.00  0.95  0.00  0.00  0.00  0.79  0.00
  79.1                    1.00   0.05  0.76  0.00  0.19  0.00  0.00  0.00  0.79  0.00
  8.1                     1.00   0.05  0.65  0.00  0.31  0.00  0.00  0.00  0.71  0.00
  83.1                    1.00   0.05  0.00  0.00  0.33  0.00  0.00  0.62  0.06  0.00
  85.1                    1.00   0.05  0.00  0.00  0.95  0.00  0.00  0.00  0.60  0.00
  86.1                    1.00   0.05  0.00  0.00  0.95  0.00  0.00  0.00  0.33  0.00
  9.1                     1.00   0.05  0.00  0.00  0.95  0.00  0.00  0.00  0.70  0.00
  C1                      1.00   0.05  0.00  0.00  0.95  0.00  0.00  0.00  0.00  0.00
  C2                      1.00   0.05  0.00  0.00  0.95  0.00  0.00  0.00  0.02  0.00
  C3                      1.00   0.05  0.00  0.00  0.95  0.00  0.00  0.00  0.68  0.00
  C4                      1.00   0.05  0.00  0.00  0.95  0.00  0.00  0.00  0.26  0.00
  C5                      1.00   0.05  0.01  0.00  0.95  0.00  0.00  0.00  0.11  0.00
  LINK100                 1.00   0.05  0.00  0.00  0.95  0.00  0.00  0.01  0.01  0.00
  LINK101                 1.00   0.05  0.00  0.00  0.95  0.00  0.00  0.00  0.00  0.00
  LINK102                 1.00   0.05  0.01  0.00  0.95  0.00  0.00  0.00  0.00  0.00
  LINK103                 1.00   0.05  0.00  0.00  0.78  0.17  0.00  0.00  0.53  0.00
  LINK104                 1.00   0.05  0.00  0.00  0.08  0.01  0.00  0.86  0.09  0.00
  LINK105                 1.00   0.05  0.00  0.00  0.95  0.00  0.00  0.00  0.08  0.00
  LINK106                 1.00   0.05  0.00  0.00  0.95  0.01  0.00  0.00  0.76  0.00
  LINK107                 1.00   0.05  0.00  0.00  0.95  0.00  0.00  0.00  0.00  0.00
  LINK108                 1.00   0.05  0.00  0.00  0.95  0.00  0.00  0.00  0.20  0.00
  LINK110                 1.00   0.05  0.00  0.00  0.95  0.00  0.00  0.00  0.00  0.00
  LINK111                 1.00   0.05  0.76  0.00  0.20  0.00  0.00  0.00  0.80  0.00
  LINK112                 1.00   0.05  0.00  0.00  0.95  0.00  0.00  0.00  0.82  0.00
  LINK113                 1.00   0.05  0.00  0.00  0.95  0.00  0.00  0.00  0.82  0.00
  LINK114                 1.00   0.05  0.00  0.00  0.95  0.00  0.00  0.00  0.76  0.00
  LINK118                 1.00   0.05  0.00  0.00  0.95  0.00  0.00  0.00  0.72  0.00
  LINK119                 1.00   0.05  0.00  0.00  0.95  0.00  0.00  0.00  0.00  0.00
  LINK120                 1.00   0.05  0.00  0.00  0.95  0.00  0.00  0.00  0.01  0.00
  LINK84                  1.00   0.05  0.00  0.00  0.95  0.00  0.00  0.00  0.71  0.00
  LINK85                  1.00   0.05  0.00  0.00  0.95  0.00  0.00  0.00  0.14  0.00
  LINK96                  1.00   0.05  0.00  0.00  0.95  0.00  0.00  0.00  0.77  0.00
  LINK98                  1.00   0.05  0.00  0.00  0.95  0.00  0.00  0.00  0.63  0.00
  
  
  *************************
  Conduit Surcharge Summary
  *************************
  
  ----------------------------------------------------------------------------
                                                           Hours        Hours 
                         --------- Hours Full --------   Above Full   Capacity
  Conduit                Both Ends  Upstream  Dnstream   Normal Flow   Limited
  ----------------------------------------------------------------------------
  10.1                        0.32      0.32      0.45      0.01         0.01
  11                          0.45      0.45      0.57      0.01         0.01
  12.1                        0.57      0.57      0.66      0.01         0.01
  13.1                        0.66      0.66      0.74      0.01         0.01
  14.1                        0.53      0.53      0.59      0.01         0.01
  15.1                        0.59      0.59      0.66      0.01         0.02
  16.1                        0.66      0.66      0.77      0.01         0.02
  17.1                        0.01      0.01      0.01      0.82         0.01
  18.1                        0.01      0.01      0.07      0.01         0.01
  2.1                         1.13      1.13      1.24      0.01         0.01
  20.1                        0.01      0.01      0.01      0.09         0.01
  24.1                        1.43      1.43      1.60      0.01         0.01
  25.1                        1.30      1.30      1.43      0.01         0.01
  26.1                        0.73      0.73      0.82      0.01         0.01
  27.1                        0.82      0.82      0.89      0.01         0.01
  29.1                        1.52      1.52      1.88      0.01         0.01
  3.1                         1.04      1.04      1.13      0.01         0.01
  30.1                        1.60      1.60      1.68      0.01         0.01
  31.1                        0.01      0.01      0.01      0.46         0.01
  32.1                        0.01      0.01      0.01      0.42         0.01
  33.1                        1.50      1.50      1.70      0.01         0.01
  34.1                        1.70      1.70      1.86      0.01         0.01
  35.1                        1.86      1.86      1.99      0.01         0.01
  36.1                        0.41      0.41      0.49      0.01         0.03
  37.1                        0.14      0.14      0.39      0.01         0.01
  38.1                        0.39      0.39      0.65      0.01         0.01
  39.1                        0.01      0.03      0.01      0.37         0.01
  4.1                         1.04      1.04      1.11      0.01         0.01
  40.1                        0.40      0.40      0.53      0.01         0.01
  41.1                        0.68      0.68      0.78      0.01         0.01
  42.1                        0.57      0.57      0.68      0.01         0.01
  43.1                        0.14      0.14      0.25      0.01         0.01
  44.1                        0.25      0.25      0.34      0.01         0.01
  45.1                        0.34      0.34      0.51      0.01         0.01
  46.1                        0.51      0.51      0.60      0.01         0.01
  47.1                        0.60      0.60      0.71      0.01         0.01
  48.1                        0.71      0.71      0.79      0.01         0.01
  49.1                        0.30      0.30      0.40      0.01         0.01
  51.1                        0.01      0.01      0.05      0.07         0.01
  52.1                        0.01      0.01      0.14      0.01         0.01
  53.1                        0.66      0.66      0.71      0.01         0.05
  54.1                        1.01      1.01      1.16      0.01         0.01
  55.1                        0.92      0.92      1.01      0.01         0.01
  56.1                        0.89      0.89      0.92      0.01         0.01
  57.1                        0.70      0.70      0.86      0.01         0.01
  58.1                        0.28      0.28      0.31      0.01         0.01
  59.1                        0.31      0.32      0.41      0.01         0.03
  6.1                         1.25      1.25      1.44      0.01         0.01
  60.1                        1.24      1.24      1.32      0.01         0.01
  61.1                        0.86      0.86      0.94      0.01         0.01
  62.1                        0.80      0.80      0.86      0.01         0.01
  63.1                        0.78      0.78      0.83      0.01         0.01
  64.1                        0.73      0.73      0.79      0.01         0.01
  65.1                        0.83      0.83      0.94      0.01         0.02
  66.1                        1.04      1.04      1.12      0.01         0.05
  68                          0.94      0.94      1.04      0.01         0.04
  69.1                        0.64      0.64      0.75      0.01         0.01
  70.1                        0.56      0.56      0.64      0.01         0.01
  72.1                        0.48      0.48      0.56      0.01         0.01
  73.1                        0.75      0.75      0.83      0.01         0.01
  78.1                        0.78      0.78      0.87      0.01         0.01
  79.1                        0.54      0.54      0.57      0.01         0.01
  8.1                         1.19      1.19      1.28      0.01         0.01
  83.1                        0.35      0.35      0.49      0.01         0.01
  85.1                        1.67      1.67      1.99      0.01         0.01
  86.1                        0.86      0.86      0.96      0.01         0.02
  9.1                         0.26      0.26      0.32      0.01         0.01
  LINK106                     0.01      0.01      0.14      0.01         0.01
  LINK84                      0.87      0.87      0.89      0.01         0.04
  LINK85                      0.71      0.71      0.76      0.11         0.09
  LINK96                      0.87      0.87      0.94      0.01         0.01
  LINK98                      1.32      1.32      1.36      0.01         0.02
  

  Analysis begun on:  Fri Nov 29 09:59:11 2019
  Analysis ended on:  Fri Nov 29 09:59:17 2019
  Total elapsed time: 00:00:06