
  EPA STORM WATER MANAGEMENT MODEL - VERSION 5.1 (Build 5.1.013)
  --------------------------------------------------------------

  Scenario Run :  EX_100YR 
  
  
  *********************************************************
  NOTE: The summary statistics displayed in this report are
  based on results found at every computational time step,  
  not just on results from each reporting time step.
  *********************************************************
  
  ****************
  Analysis Options
  ****************
  Flow Units ............... CFS
  Process Models:
    Rainfall/Runoff ........ YES
    RDII ................... NO
    Snowmelt ............... NO
    Groundwater ............ NO
    Flow Routing ........... YES
    Ponding Allowed ........ NO
    Water Quality .......... NO
  Infiltration Method ...... HORTON
  Flow Routing Method ...... DYNWAVE
  Surcharge Method ......... EXTRAN
  Starting Date ............ 01/01/2002 00:00:00
  Ending Date .............. 01/01/2002 08:00:00
  Antecedent Dry Days ...... 12.0
  Report Time Step ......... 00:05:00
  Wet Time Step ............ 00:05:00
  Dry Time Step ............ 01:00:00
  Routing Time Step ........ 5.00 sec
  Variable Time Step ....... YES
  Maximum Trials ........... 8
  Number of Threads ........ 1
  Head Tolerance ........... 0.005000 ft
  
  
  **************************        Volume         Depth
  Runoff Quantity Continuity     acre-feet        inches
  **************************     ---------       -------
  Total Precipitation ......        52.252         3.020
  Evaporation Loss .........         0.000         0.000
  Infiltration Loss ........         6.116         0.353
  Surface Runoff ...........        46.268         2.674
  Final Storage ............         0.516         0.030
  Continuity Error (%) .....        -1.239
  
  
  **************************        Volume        Volume
  Flow Routing Continuity        acre-feet      10^6 gal
  **************************     ---------     ---------
  Dry Weather Inflow .......         0.000         0.000
  Wet Weather Inflow .......        46.260        15.074
  Groundwater Inflow .......         0.000         0.000
  RDII Inflow ..............         0.000         0.000
  External Inflow ..........         0.000         0.000
  External Outflow .........        34.692        11.305
  Flooding Loss ............        11.464         3.736
  Evaporation Loss .........         0.000         0.000
  Exfiltration Loss ........         0.000         0.000
  Initial Stored Volume ....         0.000         0.000
  Final Stored Volume ......         0.048         0.016
  Continuity Error (%) .....         0.120
  
  
  *************************
  Highest Continuity Errors
  *************************
  Node JCT-602 (3.71%)
  Node JCT-604 (2.61%)
  
  
  ***************************
  Time-Step Critical Elements
  ***************************
  Link CDT-537 (9.04%)
  Link CDT-149 (4.45%)
  Link CDT-49 (2.04%)
  Link CDT-469 (2.01%)
  
  
  ********************************
  Highest Flow Instability Indexes
  ********************************
  Link CDT-631 (30)
  Link OLET-11 (21)
  Link CDT-471 (15)
  Link CDT-237 (15)
  Link CDT-283 (15)
  
  
  *************************
  Routing Time Step Summary
  *************************
  Minimum Time Step           :     0.28 sec
  Average Time Step           :     4.53 sec
  Maximum Time Step           :     5.00 sec
  Percent in Steady State     :     0.00
  Average Iterations per Step :     3.81
  Percent Not Converging      :    28.89
  
  
  ***************************
  Subcatchment Runoff Summary
  ***************************
  
  ------------------------------------------------------------------------------------------------------------------------------
                            Total      Total      Total      Total     Imperv       Perv      Total       Total     Peak  Runoff
                           Precip      Runon       Evap      Infil     Runoff     Runoff     Runoff      Runoff   Runoff   Coeff
  Subcatchment                 in         in         in         in         in         in         in    10^6 gal      CFS
  ------------------------------------------------------------------------------------------------------------------------------
  0                          3.02       0.00       0.00       0.68       1.65       0.71       2.36        0.12    12.68   0.781
  1                          3.02       0.00       0.00       0.43       2.10       0.51       2.61        0.06     6.51   0.865
  10                         3.02       0.00       0.00       0.30       2.24       0.48       2.72        0.04     4.59   0.902
  100                        3.02       0.00       0.00       0.29       2.40       0.34       2.74        0.14    14.82   0.907
  101                        3.02       0.00       0.00       0.22       2.48       0.32       2.80        0.17    17.24   0.927
  102                        3.02       0.00       0.00       0.06       2.85       0.09       2.94        0.05     4.74   0.974
  103                        3.02       0.00       0.00       0.38       2.25       0.39       2.64        0.84    86.38   0.875
  104                        3.02       0.00       0.00       0.15       2.63       0.24       2.87        0.45    42.87   0.951
  105                        3.02       0.00       0.00       0.15       2.62       0.25       2.86        0.35    33.67   0.948
  106                        3.02       0.00       0.00       0.07       2.85       0.09       2.94        0.08     7.97   0.972
  107                        3.02       0.00       0.00       0.07       2.85       0.09       2.94        0.08     7.99   0.972
  108                        3.02       0.00       0.00       0.07       2.84       0.08       2.93        0.05     4.55   0.969
  109                        3.02       0.00       0.00       0.08       2.85       0.08       2.93        0.05     4.74   0.970
  11                         3.02       0.00       0.00       0.46       1.96       0.62       2.58        0.03     3.26   0.856
  110                        3.02       0.00       0.00       0.06       2.85       0.10       2.95        0.07     6.15   0.976
  111                        3.02       0.00       0.00       0.08       2.85       0.08       2.93        0.10     9.94   0.970
  112                        3.02       0.00       0.00       0.06       2.84       0.09       2.93        0.05     4.65   0.970
  113                        3.02       0.00       0.00       0.19       2.60       0.23       2.82        0.22    21.99   0.935
  114                        3.02       0.00       0.00       0.06       2.84       0.10       2.94        0.13    12.38   0.974
  115                        3.02       0.00       0.00       0.06       2.84       0.09       2.94        0.05     5.19   0.972
  116                        3.02       0.00       0.00       0.06       2.84       0.10       2.94        0.03     2.94   0.973
  117                        3.02       0.00       0.00       0.06       2.84       0.09       2.93        0.02     2.11   0.971
  118                        3.02       0.00       0.00       0.08       2.85       0.08       2.93        0.01     1.17   0.971
  119                        3.02       0.00       0.00       0.06       2.85       0.09       2.94        0.03     3.20   0.974
  12                         3.02       0.00       0.00       0.46       1.89       0.69       2.59        0.09     9.72   0.856
  120                        3.02       0.00       0.00       0.07       2.84       0.09       2.93        0.09     9.30   0.970
  121                        3.02       0.00       0.00       0.13       2.71       0.18       2.88        0.21    21.05   0.954
  122                        3.02       0.00       0.00       0.21       2.53       0.27       2.81        0.37    36.97   0.930
  123                        3.02       0.00       0.00       0.06       2.85       0.09       2.94        0.04     3.95   0.973
  124                        3.02       0.00       0.00       0.07       2.85       0.09       2.94        0.13    13.13   0.973
  125                        3.02       0.00       0.00       0.06       2.85       0.10       2.94        0.07     6.42   0.974
  126                        3.02       0.00       0.00       0.06       2.84       0.09       2.94        0.10     9.99   0.972
  127                        3.02       0.00       0.00       0.26       2.45       0.31       2.76        0.16    16.55   0.915
  128                        3.02       0.00       0.00       0.55       1.86       0.63       2.49        0.08     8.86   0.824
  129                        3.02       0.00       0.00       0.54       1.76       0.75       2.51        0.35    38.32   0.830
  13                         3.02       0.00       0.00       0.66       1.66       0.73       2.39        0.05     5.80   0.792
  130                        3.02       0.00       0.00       0.62       1.48       0.96       2.44        0.17    19.77   0.807
  131                        3.02       0.00       0.00       0.60       1.50       0.95       2.45        0.20    22.16   0.813
  14                         3.02       0.00       0.00       0.60       1.55       0.88       2.43        0.03     3.12   0.804
  15                         3.02       0.00       0.00       0.26       2.36       0.40       2.76        0.05     5.35   0.914
  16                         3.02       0.00       0.00       0.45       2.11       0.48       2.59        0.11    11.56   0.857
  17                         3.02       0.00       0.00       0.23       2.44       0.35       2.79        0.07     6.77   0.923
  18                         3.02       0.00       0.00       0.33       2.34       0.36       2.70        0.10    10.70   0.893
  19                         3.02       0.00       0.00       0.28       2.45       0.30       2.74        0.04     4.29   0.909
  20                         3.02       0.00       0.00       0.23       2.51       0.28       2.78        0.06     6.44   0.922
  21                         3.02       0.00       0.00       0.31       2.33       0.39       2.72        0.03     3.14   0.900
  22                         3.02       0.00       0.00       0.20       2.50       0.30       2.81        0.03     3.51   0.930
  23                         3.02       0.00       0.00       0.76       1.50       0.81       2.31        0.01     1.65   0.765
  24                         3.02       0.00       0.00       0.89       1.25       0.92       2.17        0.03     3.90   0.718
  25                         3.02       0.00       0.00       0.31       2.31       0.41       2.71        0.36    37.14   0.898
  26                         3.02       0.00       0.00       0.96       0.82       1.30       2.11        0.07     8.97   0.700
  27                         3.02       0.00       0.00       0.19       2.61       0.21       2.82        0.03     3.46   0.934
  28                         3.02       0.00       0.00       0.33       2.30       0.39       2.69        0.24    20.70   0.891
  29                         3.02       0.00       0.00       0.44       1.99       0.61       2.60        0.02     1.85   0.861
  3                          3.02       0.00       0.00       0.35       2.30       0.38       2.68        0.07     7.72   0.888
  30                         3.02       0.00       0.00       0.32       2.19       0.52       2.71        0.07     7.84   0.898
  31                         3.02       0.00       0.00       0.33       2.25       0.45       2.70        0.12    12.17   0.894
  32                         3.02       0.00       0.00       0.40       2.07       0.57       2.64        0.17    18.45   0.874
  33                         3.02       0.00       0.00       0.10       2.76       0.15       2.91        0.24    23.49   0.965
  34                         3.02       0.00       0.00       0.15       2.65       0.21       2.86        0.08     7.84   0.949
  35                         3.02       0.00       0.00       0.21       2.45       0.35       2.80        0.03     3.06   0.927
  37                         3.02       0.00       0.00       0.29       2.30       0.42       2.73        0.03     3.06   0.903
  38                         3.02       0.00       0.00       0.25       2.47       0.30       2.77        0.10    10.60   0.918
  39                         3.02       0.00       0.00       0.37       2.17       0.50       2.67        0.04     3.77   0.883
  4                          3.02       0.00       0.00       0.44       1.94       0.66       2.60        0.07     7.92   0.860
  40                         3.02       0.00       0.00       0.61       1.59       0.84       2.43        0.14    14.96   0.804
  41                         3.02       0.00       0.00       0.53       1.89       0.62       2.52        0.05     4.99   0.833
  42                         3.02       0.00       0.00       0.54       1.92       0.58       2.49        0.17    17.62   0.826
  43                         3.02       0.00       0.00       0.51       1.71       0.82       2.54        0.05     5.55   0.841
  44                         3.02       0.00       0.00       0.65       1.71       0.69       2.39        0.17    19.80   0.792
  45                         3.02       0.00       0.00       0.56       1.75       0.74       2.48        0.08     8.81   0.822
  46                         3.02       0.00       0.00       0.32       2.26       0.45       2.71        0.13    13.28   0.897
  47                         3.02       0.00       0.00       0.33       2.31       0.39       2.70        0.05     5.19   0.893
  48                         3.02       0.00       0.00       0.06       2.84       0.09       2.93        0.02     1.60   0.971
  49                         3.02       0.00       0.00       0.33       2.17       0.53       2.70        0.14    14.86   0.894
  5                          3.02       0.00       0.00       0.58       1.67       0.80       2.47        0.05     5.82   0.819
  50                         3.02       0.00       0.00       0.33       2.19       0.51       2.70        0.09     9.54   0.894
  51                         3.02       0.00       0.00       0.36       2.25       0.43       2.67        0.16    16.78   0.886
  52                         3.02       0.00       0.00       0.40       2.02       0.61       2.63        0.04     4.60   0.871
  53                         3.02       0.00       0.00       0.33       2.33       0.37       2.70        0.04     3.90   0.893
  54                         3.02       0.00       0.00       0.29       2.41       0.33       2.73        0.02     2.28   0.905
  55                         3.02       0.00       0.00       0.29       2.32       0.41       2.73        0.11    10.85   0.905
  56                         3.02       0.00       0.00       0.30       2.31       0.42       2.73        0.16    16.77   0.904
  57                         3.02       0.00       0.00       0.59       1.72       0.74       2.46        0.06     6.99   0.815
  58                         3.02       0.00       0.00       0.52       1.73       0.79       2.52        0.18    20.12   0.835
  59                         3.02       0.00       0.00       0.36       2.08       0.58       2.67        0.06     5.87   0.884
  6                          3.02       0.00       0.00       0.84       0.96       1.27       2.23        0.21    25.54   0.737
  60                         3.02       0.00       0.00       0.44       1.91       0.69       2.60        0.05     5.17   0.861
  61                         3.02       0.00       0.00       0.35       2.24       0.44       2.68        0.07     7.20   0.888
  62                         3.02       0.00       0.00       0.42       1.92       0.70       2.61        0.17    18.66   0.866
  63                         3.02       0.00       0.00       0.56       1.87       0.61       2.48        0.06     6.73   0.822
  64                         3.02       0.00       0.00       1.19       0.53       1.35       1.88        0.08    10.10   0.622
  65                         3.02       0.00       0.00       0.44       2.08       0.51       2.59        0.18    19.18   0.858
  66                         3.02       0.00       0.00       0.94       0.66       1.48       2.14        0.08    10.67   0.707
  67                         3.02       0.00       0.00       0.40       2.08       0.55       2.64        0.18    19.35   0.873
  68                         3.02       0.00       0.00       0.69       1.49       0.88       2.37        0.07     7.76   0.784
  69                         3.02       0.00       0.00       0.62       1.54       0.90       2.43        0.06     6.88   0.806
  7                          3.02       0.00       0.00       0.83       1.34       0.89       2.23        0.03     4.11   0.740
  70                         3.02       0.00       0.00       0.15       2.68       0.18       2.86        0.04     3.82   0.948
  71                         3.02       0.00       0.00       0.24       2.47       0.30       2.78        0.10    10.77   0.919
  72                         3.02       0.00       0.00       1.16       0.55       1.34       1.89        0.15    16.45   0.626
  73                         3.02       0.00       0.00       1.06       0.49       1.53       2.02        0.09    11.79   0.670
  74                         3.02       0.00       0.00       0.28       2.31       0.43       2.74        0.04     4.54   0.908
  75                         3.02       0.00       0.00       0.34       2.30       0.38       2.68        0.16    16.77   0.889
  76                         3.02       0.00       0.00       0.64       1.62       0.80       2.42        0.05     5.24   0.800
  77                         3.02       0.00       0.00       0.74       1.43       0.89       2.32        0.05     5.57   0.770
  78                         3.02       0.00       0.00       0.11       2.77       0.13       2.90        0.05     4.95   0.960
  79                         3.02       0.00       0.00       0.14       2.72       0.16       2.87        0.19    19.23   0.952
  8                          3.02       0.00       0.00       0.50       1.78       0.76       2.54        0.02     2.10   0.843
  80                         3.02       0.00       0.00       0.07       2.84       0.09       2.93        0.05     4.88   0.970
  81                         3.02       0.00       0.00       0.08       2.84       0.08       2.93        0.02     2.17   0.969
  82                         3.02       0.00       0.00       0.07       2.84       0.09       2.93        0.04     4.38   0.970
  83                         3.02       0.00       0.00       0.06       2.85       0.10       2.95        0.25    24.60   0.975
  84                         3.02       0.00       0.00       0.07       2.84       0.08       2.92        0.03     3.28   0.967
  86                         3.02       0.00       0.00       0.28       2.30       0.45       2.75        0.11    11.65   0.910
  87                         3.02       0.00       0.00       0.06       2.84       0.09       2.94        0.12    11.61   0.973
  88                         3.02       0.00       0.00       0.07       2.85       0.09       2.93        0.11    10.51   0.971
  89                         3.02       0.00       0.00       0.07       2.84       0.09       2.93        0.05     4.61   0.970
  9                          3.02       0.00       0.00       0.63       1.56       0.85       2.41        0.16    16.76   0.798
  90                         3.02       0.00       0.00       0.06       2.85       0.09       2.94        0.10     9.64   0.975
  91                         3.02       0.00       0.00       0.08       2.84       0.08       2.92        0.04     3.99   0.968
  92                         3.02       0.00       0.00       0.06       2.84       0.09       2.93        0.01     0.92   0.970
  93                         3.02       0.00       0.00       0.07       2.84       0.08       2.93        0.04     3.95   0.969
  94                         3.02       0.00       0.00       0.06       2.86       0.10       2.95        0.05     4.80   0.978
  95                         3.02       0.00       0.00       0.07       2.84       0.09       2.93        0.07     6.59   0.970
  96                         3.02       0.00       0.00       0.07       2.85       0.08       2.93        0.23    18.74   0.971
  97                         3.02       0.00       0.00       0.10       2.79       0.12       2.91        0.09     8.75   0.963
  98                         3.02       0.00       0.00       0.06       2.85       0.10       2.94        0.19    18.60   0.975
  99                         3.02       0.00       0.00       0.31       2.32       0.40       2.72        1.16   118.86   0.901
  SUB-472                    3.02       0.00       0.00       0.32       2.33       0.37       2.71        0.09     9.87   0.896
  SUB-474                    3.02       0.00       0.00       0.43       1.99       0.61       2.61        0.06     6.72   0.863
  SUB-478                    3.02       0.00       0.00       0.32       2.35       0.36       2.71        0.11    11.51   0.897
  SUB-480                    3.02       0.00       0.00       0.25       2.34       0.42       2.76        0.10    10.43   0.915
  
  
  ******************
  Node Depth Summary
  ******************
  
  ---------------------------------------------------------------------------------
                                 Average  Maximum  Maximum  Time of Max    Reported
                                   Depth    Depth      HGL   Occurrence   Max Depth
  Node                 Type         Feet     Feet     Feet  days hr:min        Feet
  ---------------------------------------------------------------------------------
  JCT-10               JUNCTION     0.08     0.60  5299.07     0  01:30        0.60
  JCT-12               JUNCTION     0.28     4.25  5304.90     0  01:27        4.13
  JCT-122              JUNCTION     0.20     1.39  5210.41     0  01:30        1.36
  JCT-132              JUNCTION     0.21     2.50  5277.89     0  01:26        2.50
  JCT-134              JUNCTION     0.19     3.90  5254.56     0  01:28        3.90
  JCT-136              JUNCTION     0.67     3.41  5220.33     0  01:30        3.41
  JCT-14               JUNCTION     0.23     1.48  5289.57     0  01:30        1.47
  JCT-170              JUNCTION     0.29     3.36  5295.22     0  01:31        2.10
  JCT-172              JUNCTION     0.39     2.69  5292.12     0  01:31        2.65
  JCT-174              JUNCTION     0.15     1.12  5271.37     0  01:30        1.12
  JCT-176              JUNCTION     0.09     0.60  5252.46     0  01:30        0.60
  JCT-178              JUNCTION     0.31     1.99  5235.88     0  01:30        1.96
  JCT-18               JUNCTION     0.13     0.86  5270.17     0  01:30        0.85
  JCT-180              JUNCTION     0.21     2.05  5255.65     0  01:30        2.00
  JCT-196              JUNCTION     0.51     8.50  5209.79     0  01:31        3.55
  JCT-20               JUNCTION     0.42     4.50  5249.14     0  01:26        4.50
  JCT-204              JUNCTION     0.68     4.50  5235.25     0  01:22        4.16
  JCT-212              JUNCTION     0.84     7.50  5204.73     0  01:36        5.31
  JCT-216              JUNCTION     1.76     9.46  5193.48     0  01:24        6.64
  JCT-218              JUNCTION     0.32     3.26  5204.88     0  01:30        3.25
  JCT-22               JUNCTION     0.40     4.02  5291.05     0  01:25        3.78
  JCT-220              JUNCTION     0.64     3.00  5195.18     0  01:30        2.13
  JCT-232              JUNCTION     2.20     6.60  5198.53     0  01:35        6.60
  JCT-238              JUNCTION     0.05     0.35  5199.09     0  01:30        0.34
  JCT-24               JUNCTION     0.37     3.81  5282.05     0  01:24        3.73
  JCT-240              JUNCTION     0.62     2.20  5194.28     0  01:40        2.19
  JCT-250              JUNCTION     1.35     3.50  5196.33     0  01:20        3.50
  JCT-256              JUNCTION     0.34     3.22  5294.43     0  01:29        2.63
  JCT-258              JUNCTION     0.06     0.37  5271.47     0  01:30        0.37
  JCT-26               JUNCTION     0.55     4.49  5286.22     0  01:24        4.22
  JCT-260              JUNCTION     0.52     4.50  5278.47     0  01:30        3.86
  JCT-262              JUNCTION     0.35     2.29  5271.10     0  01:30        2.24
  JCT-266              JUNCTION     0.26     1.64  5263.75     0  01:30        1.61
  JCT-270              JUNCTION     0.67     5.92  5257.77     0  01:22        5.34
  JCT-272              JUNCTION     0.18     1.44  5241.58     0  01:30        1.43
  JCT-274              JUNCTION     0.15     1.16  5227.39     0  01:30        1.16
  JCT-276              JUNCTION     0.30     1.96  5238.83     0  01:30        1.93
  JCT-278              JUNCTION     0.49     4.50  5245.94     0  01:22        4.50
  JCT-284              JUNCTION     0.25     4.36  5254.55     0  01:28        4.21
  JCT-286              JUNCTION     0.16     1.25  5250.73     0  01:30        1.23
  JCT-288              JUNCTION     0.07     0.45  5251.40     0  01:30        0.45
  JCT-290              JUNCTION     0.16     1.15  5241.87     0  01:30        1.14
  JCT-294              JUNCTION     0.11     0.76  5228.88     0  01:30        0.76
  JCT-296              JUNCTION     0.50     4.50  5213.49     0  01:23        4.50
  JCT-298              JUNCTION     0.42     4.50  5215.31     0  01:25        4.50
  JCT-30               JUNCTION     0.53     4.50  5276.14     0  01:23        4.07
  JCT-300              JUNCTION     0.46     2.17  5208.12     0  01:30        2.15
  JCT-302              JUNCTION     0.46     2.15  5217.29     0  01:30        2.14
  JCT-304              JUNCTION     0.56     4.50  5206.07     0  01:25        4.50
  JCT-306              JUNCTION     0.09     0.61  5249.20     0  01:30        0.61
  JCT-308              JUNCTION     0.42     3.01  5206.25     0  01:30        2.70
  JCT-312              JUNCTION     0.19     1.31  5226.75     0  01:30        1.28
  JCT-314              JUNCTION     0.14     0.96  5246.74     0  01:30        0.95
  JCT-316              JUNCTION     0.18     1.05  5232.09     0  01:30        1.04
  JCT-318              JUNCTION     0.20     1.24  5252.44     0  01:30        1.23
  JCT-32               JUNCTION     0.85     5.50  5258.63     0  01:23        5.35
  JCT-320              JUNCTION     0.18     1.22  5253.18     0  01:23        0.82
  JCT-322              JUNCTION     0.21     1.38  5250.69     0  01:30        1.37
  JCT-324              JUNCTION     0.07     0.51  5255.31     0  01:30        0.51
  JCT-326              JUNCTION     0.14     0.90  5228.85     0  01:29        0.89
  JCT-328              JUNCTION     0.19     1.27  5245.36     0  01:30        1.26
  JCT-330              JUNCTION     0.22     1.48  5233.48     0  01:30        1.47
  JCT-334              JUNCTION     0.66    11.50  5207.98     0  01:30        7.26
  JCT-34               JUNCTION     0.26     4.12  5276.71     0  01:27        3.74
  JCT-36               JUNCTION     0.36     2.35  5219.50     0  01:30        2.32
  JCT-376              JUNCTION     0.85     2.44  5181.09     0  01:42        2.39
  JCT-378              JUNCTION     0.47     1.30  5187.82     0  01:41        1.30
  JCT-380              JUNCTION     0.06     1.25  5294.53     0  01:30        0.33
  JCT-382              JUNCTION     0.13     1.13  5294.82     0  01:30        1.12
  JCT-384              JUNCTION     2.25     9.50  5198.93     0  01:32        9.50
  JCT-388              JUNCTION     0.42     0.97  5188.23     0  01:43        0.96
  JCT-390              JUNCTION     0.39     0.94  5182.41     0  01:44        0.94
  JCT-40               JUNCTION     0.20     1.19  5243.14     0  01:30        1.18
  JCT-400              JUNCTION     0.32     3.50  5276.38     0  01:27        3.50
  JCT-402              JUNCTION     0.21     4.00  5276.80     0  01:27        3.64
  JCT-404              JUNCTION     0.19     3.90  5276.88     0  01:27        3.64
  JCT-406              JUNCTION     0.55     4.50  5258.54     0  01:22        4.50
  JCT-408              JUNCTION     0.57     4.00  5257.98     0  01:22        4.00
  JCT-410              JUNCTION     0.28     2.80  5275.44     0  01:23        2.80
  JCT-412              JUNCTION     0.41     3.50  5275.72     0  01:23        3.50
  JCT-414              JUNCTION     0.35     3.40  5275.75     0  01:23        3.40
  JCT-416              JUNCTION     0.24     3.20  5282.05     0  01:24        3.20
  JCT-418              JUNCTION     0.36     3.50  5281.96     0  01:24        3.50
  JCT-420              JUNCTION     0.25     3.50  5282.28     0  01:24        3.31
  JCT-422              JUNCTION     0.24     3.46  5291.25     0  01:24        3.08
  JCT-424              JUNCTION     0.31     3.50  5291.31     0  01:24        3.50
  JCT-426              JUNCTION     0.31     3.50  5290.75     0  01:25        3.50
  JCT-428              JUNCTION     0.08     0.58  5299.68     0  01:30        0.58
  JCT-430              JUNCTION     0.05     0.32  5299.61     0  01:30        0.32
  JCT-432              JUNCTION     0.37     4.20  5305.11     0  01:27        4.20
  JCT-434              JUNCTION     0.22     4.20  5305.11     0  01:27        4.00
  JCT-436              JUNCTION     0.18     4.50  5302.90     0  01:28        4.31
  JCT-438              JUNCTION     0.17     4.50  5303.33     0  01:28        4.00
  JCT-44               JUNCTION     0.34     6.14  5282.81     0  01:30        2.52
  JCT-440              JUNCTION     0.07     0.47  5283.35     0  01:30        0.47
  JCT-442              JUNCTION     0.11     0.79  5283.31     0  01:30        0.79
  JCT-444              JUNCTION     0.12     0.99  5248.20     0  01:28        0.84
  JCT-446              JUNCTION     0.03     0.21  5246.28     0  01:30        0.21
  JCT-448              JUNCTION     0.00     0.00  5270.31     0  00:00        0.00
  JCT-450              JUNCTION     0.05     0.37  5239.36     0  01:30        0.37
  JCT-452              JUNCTION     0.10     0.70  5251.04     0  01:30        0.70
  JCT-454              JUNCTION     0.00     0.00  5265.81     0  00:00        0.00
  JCT-456              JUNCTION     0.19     4.50  5271.10     0  01:31        1.57
  JCT-458              JUNCTION     0.05     0.32  5255.78     0  01:30        0.31
  JCT-46               JUNCTION     0.42     3.66  5267.57     0  01:31        3.58
  JCT-460              JUNCTION     0.13     1.21  5241.70     0  01:30        1.21
  JCT-462              JUNCTION     0.11     1.03  5241.60     0  01:30        1.02
  JCT-464              JUNCTION     0.39     2.92  5234.29     0  01:46        2.79
  JCT-466              JUNCTION     0.34     2.80  5234.50     0  01:21        2.64
  JCT-468              JUNCTION     0.05     0.35  5248.65     0  01:30        0.35
  JCT-470              JUNCTION     0.11     0.73  5232.24     0  01:30        0.73
  JCT-472              JUNCTION     0.05     0.33  5242.26     0  01:30        0.33
  JCT-474              JUNCTION     0.31     4.50  5219.75     0  01:26        4.50
  JCT-476              JUNCTION     0.11     0.80  5238.76     0  01:30        0.80
  JCT-478              JUNCTION     0.10     0.66  5237.91     0  01:30        0.65
  JCT-48               JUNCTION     0.28     1.81  5248.39     0  01:30        1.78
  JCT-480              JUNCTION     0.10     0.69  5237.45     0  01:30        0.68
  JCT-482              JUNCTION     0.07     0.48  5238.74     0  01:30        0.48
  JCT-484              JUNCTION     0.15     3.95  5216.30     0  01:24        1.64
  JCT-486              JUNCTION     0.40     3.50  5214.49     0  01:23        3.50
  JCT-490              JUNCTION     0.23     1.70  5220.70     0  01:30        1.70
  JCT-492              JUNCTION     1.69     4.50  5192.23     0  01:19        4.50
  JCT-494              JUNCTION     0.37     4.50  5217.31     0  01:27        4.50
  JCT-496              JUNCTION     0.08     0.55  5235.17     0  01:30        0.55
  JCT-498              JUNCTION     0.09     0.57  5233.13     0  01:30        0.57
  JCT-50               JUNCTION     0.34     4.50  5257.83     0  01:26        4.50
  JCT-500              JUNCTION     0.13     0.77  5204.51     0  01:30        0.76
  JCT-502              JUNCTION     0.11     0.80  5252.27     0  01:30        0.80
  JCT-504              JUNCTION     0.30     2.50  5235.42     0  01:22        2.50
  JCT-506              JUNCTION     0.11     0.92  5241.84     0  01:30        0.91
  JCT-508              JUNCTION     0.20     2.44  5244.86     0  01:30        2.44
  JCT-510              JUNCTION     0.06     0.38  5242.54     0  01:30        0.38
  JCT-512              JUNCTION     0.24     3.90  5223.38     0  01:26        2.50
  JCT-514              JUNCTION     0.36     3.50  5246.02     0  01:22        3.50
  JCT-516              JUNCTION     0.25     2.50  5245.30     0  01:22        2.50
  JCT-518              JUNCTION     0.32     3.00  5245.15     0  01:22        3.00
  JCT-520              JUNCTION     0.14     1.01  5276.20     0  01:30        1.01
  JCT-522              JUNCTION     0.13     0.96  5290.60     0  01:30        0.96
  JCT-524              JUNCTION     0.23     2.12  5291.98     0  01:30        2.12
  JCT-526              JUNCTION     0.20     1.38  5271.30     0  01:30        1.38
  JCT-528              JUNCTION     0.23     3.00  5278.62     0  01:30        2.58
  JCT-530              JUNCTION     0.31     3.00  5285.42     0  01:22        3.00
  JCT-532              JUNCTION     0.36     3.50  5286.00     0  01:24        3.50
  JCT-534              JUNCTION     0.19     4.50  5285.97     0  01:24        2.57
  JCT-536              JUNCTION     0.47     4.50  5205.46     0  01:29        4.20
  JCT-538              JUNCTION     0.15     2.50  5204.71     0  01:30        1.70
  JCT-54               JUNCTION     0.34     5.28  5302.80     0  01:28        5.05
  JCT-540              JUNCTION     0.41     3.00  5203.70     0  01:31        3.00
  JCT-542              JUNCTION     0.47     2.50  5202.72     0  01:27        2.50
  JCT-544              JUNCTION     0.62     2.50  5201.98     0  01:25        2.50
  JCT-546              JUNCTION     0.23     1.46  5210.02     0  01:30        1.46
  JCT-548              JUNCTION     0.17     4.50  5211.12     0  01:30        1.49
  JCT-550              JUNCTION     1.15     3.76  5185.74     0  01:53        3.75
  JCT-552              JUNCTION     0.11     0.76  5191.78     0  01:30        0.76
  JCT-554              JUNCTION     0.18     1.43  5191.50     0  01:35        1.35
  JCT-556              JUNCTION     0.08     0.52  5188.67     0  01:30        0.52
  JCT-558              JUNCTION     0.07     0.54  5187.59     0  01:51        0.40
  JCT-560              JUNCTION     0.09     0.62  5187.75     0  01:30        0.62
  JCT-562              JUNCTION     0.33     4.50  5193.91     0  01:26        4.50
  JCT-564              JUNCTION     0.06     0.38  5220.05     0  01:30        0.38
  JCT-566              JUNCTION     0.92     4.50  5234.10     0  01:21        4.50
  JCT-568              JUNCTION     0.17     4.04  5255.00     0  01:28        3.49
  JCT-570              JUNCTION     0.16     3.50  5254.33     0  01:28        3.50
  JCT-572              JUNCTION     0.91     6.50  5245.59     0  01:22        6.30
  JCT-574              JUNCTION     0.39     1.54  5229.15     0  01:36        1.54
  JCT-576              JUNCTION     0.42     4.25  5284.65     0  01:24        3.53
  JCT-578              JUNCTION     0.43     4.23  5291.41     0  01:25        4.08
  JCT-580              JUNCTION     0.20     3.94  5304.98     0  01:27        3.80
  JCT-582              JUNCTION     0.31     2.02  5275.16     0  01:30        1.99
  JCT-584              JUNCTION     0.05     0.33  5266.78     0  01:30        0.33
  JCT-586              JUNCTION     0.22     1.74  5291.47     0  01:30        1.74
  JCT-588              JUNCTION     0.23     1.49  5293.76     0  01:30        1.49
  JCT-590              JUNCTION     0.07     0.61  5292.06     0  01:32        0.47
  JCT-592              JUNCTION     0.21     1.74  5243.27     0  01:30        1.70
  JCT-594              JUNCTION     0.19     1.45  5247.40     0  01:30        1.43
  JCT-596              JUNCTION     0.14     1.07  5282.14     0  01:30        1.06
  JCT-598              JUNCTION     0.20     2.43  5224.65     0  01:29        2.37
  JCT-60               JUNCTION     0.18     1.22  5238.90     0  01:30        1.21
  JCT-600              JUNCTION     0.30     1.16  5198.53     0  01:35        1.16
  JCT-602              JUNCTION     0.93     4.50  5191.70     0  01:27        4.34
  JCT-604              JUNCTION     2.52    13.50  5193.85     0  01:30       13.50
  JCT-606              JUNCTION     0.58     4.50  5203.46     0  01:29        4.50
  JCT-608              JUNCTION     0.11     0.72  5238.76     0  01:30        0.72
  JCT-610              JUNCTION     0.08     0.53  5239.12     0  01:30        0.53
  JCT-612              JUNCTION     0.06     0.36  5229.33     0  01:30        0.36
  JCT-614              JUNCTION     0.11     0.67  5200.01     0  01:30        0.66
  JCT-616              JUNCTION     1.25     4.50  5192.96     0  01:26        4.50
  JCT-618              JUNCTION     0.36     5.23  5310.73     0  01:28        5.08
  JCT-620              JUNCTION     0.23     4.50  5310.63     0  01:27        4.50
  JCT-622              JUNCTION     0.29     4.50  5310.54     0  01:27        4.50
  JCT-624              JUNCTION     0.23     4.50  5311.02     0  01:27        4.30
  JCT-628              JUNCTION     0.05     0.44  5248.00     0  01:27        0.36
  JCT-630              JUNCTION     0.11     0.87  5253.77     0  01:30        0.87
  JCT-632              JUNCTION     0.14     4.50  5303.17     0  01:28        3.97
  JCT-634              JUNCTION     0.30     4.50  5258.22     0  01:22        3.69
  JCT-636              JUNCTION     0.54     2.82  5185.82     0  01:35        2.82
  JCT-70               JUNCTION     0.77     4.50  5235.89     0  01:22        3.95
  JCT-374              OUTFALL      0.84     2.44  5174.33     0  01:42        2.39
  OFALL-10             OUTFALL      0.52     2.83  5177.33     0  01:34        2.83
  STOR-10              STORAGE      3.89    12.00  5202.24     0  01:43       11.99
  STOR-12              STORAGE      1.30     5.94  5203.94     0  01:35        5.94
  STOR-14              STORAGE      2.48     5.45  5194.26     0  01:43        5.44
  STOR-16              STORAGE      2.58     5.43  5187.45     0  01:44        5.43
  STOR-18              STORAGE      0.82     4.39  5191.39     0  01:37        4.36
  STOR-20              STORAGE      1.37     4.24  5192.24     0  01:35        4.24
  STOR-22              STORAGE      2.22    18.00  5203.00     0  01:29       18.00
  
  
  *******************
  Node Inflow Summary
  *******************
  
  -------------------------------------------------------------------------------------------------
                                  Maximum  Maximum                  Lateral       Total        Flow
                                  Lateral    Total  Time of Max      Inflow      Inflow     Balance
                                   Inflow   Inflow   Occurrence      Volume      Volume       Error
  Node                 Type           CFS      CFS  days hr:min    10^6 gal    10^6 gal     Percent
  -------------------------------------------------------------------------------------------------
  JCT-10               JUNCTION      0.00     6.19     0  01:30           0      0.0529      -0.034
  JCT-12               JUNCTION      0.00    24.88     0  01:26           0       0.296       0.001
  JCT-122              JUNCTION      8.97    70.27     0  01:30      0.0705       0.673       0.038
  JCT-132              JUNCTION     17.62    17.62     0  01:30       0.171       0.171       0.015
  JCT-134              JUNCTION     11.79    11.79     0  01:30      0.0897      0.0897      -0.096
  JCT-136              JUNCTION      0.00   143.06     0  01:34           0        2.55      -0.021
  JCT-14               JUNCTION      0.00    76.25     0  01:30           0       0.847      -0.004
  JCT-170              JUNCTION      0.00    46.20     0  01:31           0        0.53       0.002
  JCT-172              JUNCTION      0.00    47.10     0  01:31           0       0.559      -0.002
  JCT-174              JUNCTION      9.87     9.87     0  01:30      0.0942      0.0942      -0.003
  JCT-176              JUNCTION      0.00     6.75     0  01:30           0      0.0663       0.007
  JCT-178              JUNCTION      1.85    70.73     0  01:30      0.0171       0.835       0.002
  JCT-18               JUNCTION      3.06    20.65     0  01:30      0.0299       0.202       0.001
  JCT-180              JUNCTION     20.70    20.70     0  01:30       0.242       0.242      -0.002
  JCT-196              JUNCTION      0.00   218.31     0  01:30           0        2.31       0.019
  JCT-20               JUNCTION     37.14    37.14     0  01:30       0.359       0.359      -0.004
  JCT-204              JUNCTION      0.00   102.07     0  01:30           0        2.26      -0.055
  JCT-212              JUNCTION      8.75   175.74     0  01:30      0.0884        3.48      -0.112
  JCT-216              JUNCTION      0.00   106.47     0  01:36           0        4.68       0.065
  JCT-218              JUNCTION     21.99    21.99     0  01:30       0.217       0.217      -0.039
  JCT-22               JUNCTION      0.00    16.03     0  01:30           0       0.243      -0.002
  JCT-220              JUNCTION     21.05    21.05     0  01:30       0.213       0.213      -0.083
  JCT-232              JUNCTION      0.00    16.73     0  01:44           0       0.525      -0.042
  JCT-238              JUNCTION      4.65     4.65     0  01:30      0.0471      0.0471      -0.071
  JCT-24               JUNCTION      0.00    13.50     0  01:24           0       0.235       0.276
  JCT-240              JUNCTION      9.30     9.30     0  01:30      0.0944      0.0944      -0.141
  JCT-250              JUNCTION     17.24    30.49     0  01:30       0.169       0.675      -0.043
  JCT-256              JUNCTION      0.00    44.62     0  01:31           0        0.53       0.003
  JCT-258              JUNCTION      1.60     1.60     0  01:30      0.0162      0.0162      -0.004
  JCT-26               JUNCTION      0.00    41.34     0  01:35           0       0.686       0.001
  JCT-260              JUNCTION      0.00   103.04     0  01:30           0        1.14      -0.012
  JCT-262              JUNCTION      0.00   109.03     0  01:30           0        1.21       0.003
  JCT-266              JUNCTION      6.88   130.17     0  01:30      0.0603        1.43      -0.001
  JCT-270              JUNCTION      0.00   172.81     0  01:49           0        1.65      -0.288
  JCT-272              JUNCTION     10.85    10.85     0  01:30       0.106       0.106      -0.002
  JCT-274              JUNCTION     38.32    38.32     0  01:30       0.345       0.345      -0.002
  JCT-276              JUNCTION      0.00   162.65     0  01:30           0        1.76       0.003
  JCT-278              JUNCTION      0.00    23.12     0  01:32           0       0.296      -0.264
  JCT-284              JUNCTION      0.00    16.15     0  01:27           0       0.172      -0.007
  JCT-286              JUNCTION      0.00    21.67     0  01:30           0       0.211       0.207
  JCT-288              JUNCTION      4.95     4.95     0  01:30      0.0507      0.0507      -0.008
  JCT-290              JUNCTION      0.00    26.16     0  01:30           0       0.265       0.006
  JCT-294              JUNCTION     10.51    22.08     0  01:30       0.107       0.225      -0.008
  JCT-296              JUNCTION     42.87    49.01     0  01:30       0.447       0.514       0.115
  JCT-298              JUNCTION     86.38    86.38     0  01:30       0.838       0.838       0.120
  JCT-30               JUNCTION      0.00    57.01     0  01:23           0        1.15      -0.104
  JCT-300              JUNCTION      0.00   167.56     0  01:30           0        3.39       0.069
  JCT-302              JUNCTION      0.00   137.98     0  01:30           0        2.85      -0.001
  JCT-304              JUNCTION      0.00    82.16     0  01:30           0        1.32      -0.119
  JCT-306              JUNCTION      6.44     6.44     0  01:30      0.0628      0.0628      -0.004
  JCT-308              JUNCTION      0.00   147.96     0  01:30           0        1.58       0.449
  JCT-312              JUNCTION      3.90    62.03     0  01:30      0.0316       0.603      -0.003
  JCT-314              JUNCTION      0.00    17.31     0  01:30           0        0.17       0.002
  JCT-316              JUNCTION      7.84    77.95     0  01:30      0.0749        0.91       0.014
  JCT-318              JUNCTION      0.00    40.92     0  01:30           0       0.445       0.002
  JCT-32               JUNCTION      0.00    76.39     0  01:22           0        1.62      -0.021
  JCT-320              JUNCTION     16.78    33.20     0  01:30       0.159       0.388       0.017
  JCT-322              JUNCTION      0.00    37.93     0  01:30           0       0.431       0.006
  JCT-324              JUNCTION     12.17    12.17     0  01:30       0.116       0.116      -0.002
  JCT-326              JUNCTION     18.45    67.36     0  01:30       0.173        0.72       0.149
  JCT-328              JUNCTION      0.00    49.76     0  01:30           0       0.547      -0.003
  JCT-330              JUNCTION      0.00    49.72     0  01:30           0       0.547       0.005
  JCT-334              JUNCTION      0.00   424.76     0  01:30           0         4.6      -0.280
  JCT-34               JUNCTION      0.00    24.94     0  01:27           0       0.288       0.056
  JCT-36               JUNCTION      0.00   218.91     0  01:30           0        2.31      -0.003
  JCT-376              JUNCTION      0.00   166.58     0  01:44           0        6.88       0.009
  JCT-378              JUNCTION      0.00    35.32     0  01:41           0        1.38       0.138
  JCT-380              JUNCTION      3.12     3.46     0  01:30      0.0337      0.0337       0.006
  JCT-382              JUNCTION      9.72     9.72     0  01:30      0.0893      0.0893      -0.003
  JCT-384              JUNCTION      0.00   124.10     0  01:43           0        4.45       0.125
  JCT-388              JUNCTION      3.20    12.48     0  01:42      0.0326       0.599       0.018
  JCT-390              JUNCTION      0.00    11.47     0  01:44           0        0.59       0.001
  JCT-40               JUNCTION      3.46    68.95     0  01:30      0.0341       0.818      -0.001
  JCT-400              JUNCTION     18.66    18.66     0  01:30       0.174       0.174       0.003
  JCT-402              JUNCTION      6.73     6.73     0  01:30      0.0601      0.0601      -0.035
  JCT-404              JUNCTION     10.10    10.10     0  01:30      0.0752      0.0752      -0.157
  JCT-406              JUNCTION      7.76     8.05     0  01:47      0.0667      0.0671       0.010
  JCT-408              JUNCTION     38.53    52.56     0  01:30        0.36       0.417      -0.015
  JCT-410              JUNCTION      7.20    17.56     0  01:30      0.0683       0.135      -0.103
  JCT-412              JUNCTION     19.77    19.77     0  01:30       0.173       0.173       0.034
  JCT-414              JUNCTION      9.54     9.54     0  01:30      0.0907      0.0907       0.008
  JCT-416              JUNCTION      5.87     5.87     0  01:30      0.0553      0.0553      -0.115
  JCT-418              JUNCTION     20.12    20.12     0  01:30       0.181       0.181      -0.002
  JCT-420              JUNCTION      5.17     5.17     0  01:30      0.0477      0.0477      -0.055
  JCT-422              JUNCTION      3.26     3.26     0  01:30        0.03        0.03      -0.062
  JCT-424              JUNCTION     16.76    16.76     0  01:30       0.156       0.156      -0.089
  JCT-426              JUNCTION      4.59     9.21     0  01:30      0.0439      0.0594      -0.044
  JCT-428              JUNCTION      4.11     4.11     0  01:30      0.0338      0.0338      -0.010
  JCT-430              JUNCTION      2.10     2.10     0  01:30      0.0191      0.0191      -0.015
  JCT-432              JUNCTION     25.54    25.54     0  01:30        0.21        0.21      -0.001
  JCT-434              JUNCTION      8.81     8.81     0  01:30      0.0786      0.0786      -0.168
  JCT-436              JUNCTION      5.82     5.82     0  01:30      0.0517      0.0517       0.019
  JCT-438              JUNCTION      7.92     7.92     0  01:30      0.0733      0.0733       0.013
  JCT-44               JUNCTION      0.00    75.96     0  01:30           0       0.847       0.000
  JCT-440              JUNCTION      6.72     6.72     0  01:30      0.0621      0.0621      -0.011
  JCT-442              JUNCTION     16.91    16.91     0  01:30       0.158       0.158      -0.009
  JCT-444              JUNCTION     10.70    10.70     0  01:30       0.102       0.102      -0.040
  JCT-446              JUNCTION      1.65     1.65     0  01:30      0.0139      0.0139      -0.004
  JCT-448              JUNCTION      0.00     0.00     0  00:00           0           0       0.000 gal
  JCT-450              JUNCTION      3.90     3.90     0  01:30      0.0371      0.0371      -0.015
  JCT-452              JUNCTION      4.60     4.60     0  01:30      0.0428      0.0428       0.004
  JCT-454              JUNCTION      0.00     0.00     0  00:00           0           0       0.000 gal
  JCT-456              JUNCTION     14.86    14.86     0  01:30       0.141       0.141      -0.297
  JCT-458              JUNCTION      3.82     3.82     0  01:30      0.0382      0.0382      -0.003
  JCT-46               JUNCTION      0.00   129.64     0  01:31           0        1.35      -0.006
  JCT-460              JUNCTION     10.77    10.77     0  01:30       0.105       0.105      -0.003
  JCT-462              JUNCTION      8.86     8.86     0  01:30      0.0794      0.0794      -0.002
  JCT-464              JUNCTION      4.38     4.38     0  01:30      0.0443      0.0443       0.079
  JCT-466              JUNCTION     11.51    11.51     0  01:30        0.11        0.11      -0.128
  JCT-468              JUNCTION      3.51     3.51     0  01:30      0.0344      0.0344       0.033
  JCT-470              JUNCTION     11.61    11.61     0  01:30       0.118       0.118      -0.004
  JCT-472              JUNCTION      4.61     4.61     0  01:30      0.0468      0.0468      -0.021
  JCT-474              JUNCTION      9.64    14.23     0  01:30      0.0995       0.146      -0.040
  JCT-476              JUNCTION      3.99     3.99     0  01:30      0.0404      0.0404      -0.010
  JCT-478              JUNCTION      0.92     4.86     0  01:30     0.00929      0.0497       0.004
  JCT-48               JUNCTION      0.00   133.75     0  01:30           0        1.47       0.002
  JCT-480              JUNCTION      3.95    13.47     0  01:30        0.04       0.139      -0.005
  JCT-482              JUNCTION      6.59     6.59     0  01:30      0.0669      0.0669      -0.037
  JCT-484              JUNCTION      0.00     6.54     0  01:30           0       0.067      -0.038
  JCT-486              JUNCTION     18.74    52.10     0  01:30       0.227       0.595       0.017
  JCT-490              JUNCTION     11.65    11.65     0  01:30       0.112       0.112       0.063
  JCT-492              JUNCTION    118.86   118.86     0  01:30        1.16        1.16      -0.015
  JCT-494              JUNCTION     33.67    41.54     0  01:30       0.351       0.432      -0.057
  JCT-496              JUNCTION      4.55     4.55     0  01:30      0.0461      0.0461      -0.004
  JCT-498              JUNCTION      7.99    12.49     0  01:30       0.082       0.128       0.074
  JCT-50               JUNCTION     23.49    23.49     0  01:30        0.24        0.24      -0.015
  JCT-500              JUNCTION      6.15    10.82     0  01:30      0.0726       0.121       0.003
  JCT-502              JUNCTION     16.77    16.77     0  01:30       0.161       0.161      -0.007
  JCT-504              JUNCTION     22.16    22.16     0  01:30       0.196       0.196      -0.001
  JCT-506              JUNCTION      4.88     4.88     0  01:30      0.0494      0.0494      -0.012
  JCT-508              JUNCTION     19.23    19.23     0  01:30       0.194       0.194      -0.008
  JCT-510              JUNCTION      2.17     2.17     0  01:30       0.022       0.022      -0.013
  JCT-512              JUNCTION     24.60    24.60     0  01:30       0.252       0.252      -0.457
  JCT-514              JUNCTION     16.45    16.45     0  01:30       0.147       0.149      -0.233
  JCT-516              JUNCTION      5.24    11.79     0  01:30      0.0458      0.0884      -0.085
  JCT-518              JUNCTION     10.43    21.89     0  01:30       0.101       0.185      -0.117
  JCT-520              JUNCTION      5.19     5.19     0  01:30      0.0494      0.0494      -0.003
  JCT-522              JUNCTION      4.99     4.99     0  01:30       0.045       0.045      -0.003
  JCT-524              JUNCTION     14.96    14.96     0  01:30       0.139       0.139      -0.001
  JCT-526              JUNCTION      7.84     7.84     0  01:30      0.0783      0.0783      -0.003
  JCT-528              JUNCTION     13.28    13.28     0  01:30       0.127       0.127       0.116
  JCT-530              JUNCTION      5.55    19.92     0  01:30      0.0502       0.127       0.027
  JCT-532              JUNCTION     19.80    19.80     0  01:30       0.172       0.172      -0.014
  JCT-534              JUNCTION      6.99     6.99     0  01:30      0.0618      0.0619      -0.174
  JCT-536              JUNCTION     12.38    58.69     0  01:30       0.126       0.679      -0.039
  JCT-538              JUNCTION      5.19     5.19     0  01:30      0.0526      0.0526      -0.118
  JCT-54               JUNCTION      0.00    33.82     0  01:30           0       0.407      -0.055
  JCT-540              JUNCTION      2.94     8.00     0  01:35      0.0298      0.0468      -0.100
  JCT-542              JUNCTION      2.11    11.56     0  01:34      0.0213      0.0967      -0.088
  JCT-544              JUNCTION      1.17    11.66     0  01:34      0.0132       0.133      -0.060
  JCT-546              JUNCTION      0.00    46.50     0  01:30           0       0.554       0.016
  JCT-548              JUNCTION      0.00    13.41     0  01:30           0       0.139       0.221
  JCT-550              JUNCTION      0.00   105.50     0  01:32           0        4.68      -0.001
  JCT-552              JUNCTION     16.55    16.55     0  01:30       0.163       0.163      -0.011
  JCT-554              JUNCTION      9.99     9.99     0  01:30       0.101       0.101      -0.026
  JCT-556              JUNCTION      6.42     6.42     0  01:30      0.0655      0.0655      -0.035
  JCT-558              JUNCTION      3.95     3.95     0  01:30      0.0402      0.0406       0.098
  JCT-560              JUNCTION     13.13    13.13     0  01:30       0.134       0.134      -0.024
  JCT-562              JUNCTION     36.97    36.97     0  01:30        0.37        0.37      -0.019
  JCT-564              JUNCTION      3.28     3.28     0  01:30      0.0331      0.0331      -0.004
  JCT-566              JUNCTION      0.00   117.70     0  01:30           0        2.42      -0.007
  JCT-568              JUNCTION      4.54     4.54     0  01:30      0.0436      0.0436      -0.047
  JCT-570              JUNCTION      5.57     5.57     0  01:30      0.0472      0.0472      -0.079
  JCT-572              JUNCTION      0.00    84.38     0  01:49           0        1.99      -0.033
  JCT-574              JUNCTION      0.00    73.30     0  01:43           0        2.19       0.001
  JCT-576              JUNCTION      0.00   106.68     0  01:47           0       0.672      -0.071
  JCT-578              JUNCTION      0.00    12.81     0  01:30           0       0.186       0.023
  JCT-580              JUNCTION      3.77     3.77     0  01:30      0.0355      0.0355      -0.051
  JCT-582              JUNCTION      0.00   107.88     0  01:30           0        1.19      -0.001
  JCT-584              JUNCTION      2.28     2.28     0  01:30       0.022       0.022      -0.003
  JCT-586              JUNCTION     10.60    10.60     0  01:30       0.103       0.103      -0.003
  JCT-588              JUNCTION      0.00    43.43     0  01:30           0       0.496       0.001
  JCT-590              JUNCTION      3.06     3.06     0  01:30      0.0293      0.0293       0.129
  JCT-592              JUNCTION      0.00    53.84     0  01:30           0       0.527      -0.002
  JCT-594              JUNCTION      0.00    36.72     0  01:30           0       0.357      -0.038
  JCT-596              JUNCTION      0.00    23.58     0  01:30           0       0.221       0.009
  JCT-598              JUNCTION     16.77    20.62     0  01:30       0.161       0.198      -0.002
  JCT-60               JUNCTION      3.14    56.79     0  01:30        0.03       0.557       0.000
  JCT-600              JUNCTION      0.00    24.03     0  01:35           0        0.78       0.001
  JCT-602              JUNCTION      0.00    15.86     0  02:41           0       0.491       3.853
  JCT-604              JUNCTION      0.00    21.52     0  01:38           0       0.261       2.685
  JCT-606              JUNCTION     18.60    18.60     0  01:30        0.19        0.19      -0.009
  JCT-608              JUNCTION      4.80     4.80     0  01:30      0.0491      0.0491      -0.006
  JCT-610              JUNCTION      7.97     7.97     0  01:30      0.0815      0.0815       0.075
  JCT-612              JUNCTION      4.74     4.74     0  01:30      0.0482      0.0482      -0.005
  JCT-614              JUNCTION      9.94    20.56     0  01:30       0.101       0.222      -0.057
  JCT-616              JUNCTION     14.82    14.82     0  01:30       0.143       0.143      -0.101
  JCT-618              JUNCTION      0.00    17.62     0  01:26           0       0.232       0.001
  JCT-620              JUNCTION      6.51     6.51     0  01:30      0.0604      0.0604      -0.122
  JCT-622              JUNCTION     12.68    12.68     0  01:30       0.119       0.119      -0.000
  JCT-624              JUNCTION      7.72     7.72     0  01:30      0.0735      0.0735      -0.088
  JCT-628              JUNCTION      4.29     4.29     0  01:30      0.0414      0.0414       0.175
  JCT-630              JUNCTION      6.77     6.77     0  01:30      0.0663      0.0663      -0.008
  JCT-632              JUNCTION      5.80     5.80     0  01:30      0.0503      0.0503      -0.071
  JCT-634              JUNCTION     10.67    10.67     0  01:30      0.0849      0.0852      -0.393
  JCT-636              JUNCTION      0.00   284.73     0  01:30           0        4.42       0.008
  JCT-70               JUNCTION      0.00    67.10     0  01:41           0        1.86       0.010
  JCT-374              OUTFALL       0.00   162.21     0  01:42           0        6.88       0.000
  OFALL-10             OUTFALL       0.00   284.58     0  01:34           0        4.42       0.000
  STOR-10              STORAGE       4.74   259.43     0  01:30      0.0484        4.97      -0.018
  STOR-12              STORAGE       0.00    87.50     0  01:30           0       0.993       0.060
  STOR-14              STORAGE       0.00    54.16     0  01:30           0       0.577       0.303
  STOR-16              STORAGE       0.00    48.83     0  01:30           0       0.593       0.142
  STOR-18              STORAGE       0.00    26.49     0  01:30           0       0.264       0.925
  STOR-20              STORAGE       0.00    28.20     0  01:19           0       0.491       0.060
  STOR-22              STORAGE       0.00   413.87     0  01:31           0        4.61       0.033
  
  
  **********************
  Node Surcharge Summary
  **********************
  
  Surcharging occurs when water rises above the top of the highest conduit.
  ---------------------------------------------------------------------
                                               Max. Height   Min. Depth
                                   Hours       Above Crown    Below Rim
  Node                 Type      Surcharged           Feet         Feet
  ---------------------------------------------------------------------
  JCT-12               JUNCTION        0.13          2.749        0.251
  JCT-132              JUNCTION        0.11          0.500        0.000
  JCT-134              JUNCTION        0.10          2.400        0.000
  JCT-170              JUNCTION        0.01          0.855        2.145
  JCT-180              JUNCTION        0.09          0.547        1.453
  JCT-196              JUNCTION        0.02          3.500        0.000
  JCT-20               JUNCTION        0.24          3.000        0.000
  JCT-204              JUNCTION        0.46          1.500        0.000
  JCT-212              JUNCTION        0.32          3.000        0.000
  JCT-216              JUNCTION        1.27          5.456        0.044
  JCT-218              JUNCTION        0.22          1.259        1.241
  JCT-22               JUNCTION        0.25          2.522        0.478
  JCT-220              JUNCTION        0.42          1.000        0.000
  JCT-232              JUNCTION        3.17          5.100        0.000
  JCT-24               JUNCTION        0.24          2.313        0.687
  JCT-240              JUNCTION        0.52          0.201        0.799
  JCT-250              JUNCTION        2.77          2.000        0.000
  JCT-256              JUNCTION        0.07          0.715        2.285
  JCT-26               JUNCTION        0.40          2.989        0.011
  JCT-260              JUNCTION        0.15          1.500        0.000
  JCT-270              JUNCTION        0.33          3.423        0.577
  JCT-278              JUNCTION        0.38          3.000        0.000
  JCT-284              JUNCTION        0.12          2.859        0.141
  JCT-296              JUNCTION        0.28          3.000        0.000
  JCT-298              JUNCTION        0.17          2.500        0.000
  JCT-30               JUNCTION        0.30          2.500        0.000
  JCT-304              JUNCTION        0.28          2.000        0.000
  JCT-32               JUNCTION        0.98          3.500        0.000
  JCT-334              JUNCTION        0.09          4.500        0.000
  JCT-34               JUNCTION        0.12          2.622        0.378
  JCT-384              JUNCTION        1.16          2.500        0.000
  JCT-400              JUNCTION        0.16          2.000        0.000
  JCT-402              JUNCTION        0.11          2.500        0.000
  JCT-404              JUNCTION        0.11          2.400        0.000
  JCT-406              JUNCTION        0.41          3.000        0.000
  JCT-408              JUNCTION        0.46          2.500        0.000
  JCT-410              JUNCTION        0.29          1.300        0.000
  JCT-412              JUNCTION        0.30          2.000        0.000
  JCT-414              JUNCTION        0.29          1.900        0.000
  JCT-416              JUNCTION        0.21          1.700        0.000
  JCT-418              JUNCTION        0.24          2.000        0.000
  JCT-420              JUNCTION        0.22          2.000        0.000
  JCT-422              JUNCTION        0.22          1.957        0.043
  JCT-424              JUNCTION        0.23          2.000        0.000
  JCT-426              JUNCTION        0.24          2.000        0.000
  JCT-432              JUNCTION        0.22          2.700        0.000
  JCT-434              JUNCTION        0.12          2.700        0.000
  JCT-436              JUNCTION        0.10          3.000        0.000
  JCT-438              JUNCTION        0.08          3.000        0.000
  JCT-44               JUNCTION        0.03          3.140        2.360
  JCT-456              JUNCTION        0.01          3.000        0.000
  JCT-464              JUNCTION        0.49          1.424        0.076
  JCT-466              JUNCTION        0.48          1.300        0.000
  JCT-474              JUNCTION        0.14          3.000        0.000
  JCT-484              JUNCTION        0.01          2.446        0.554
  JCT-486              JUNCTION        0.25          2.000        0.000
  JCT-490              JUNCTION        0.06          0.205        1.496
  JCT-492              JUNCTION        2.49          3.000        0.000
  JCT-494              JUNCTION        0.11          2.500        0.000
  JCT-50               JUNCTION        0.20          3.000        0.000
  JCT-504              JUNCTION        0.37          1.000        0.000
  JCT-508              JUNCTION        0.08          0.943        2.057
  JCT-512              JUNCTION        0.12          2.400        0.000
  JCT-514              JUNCTION        0.35          2.000        0.000
  JCT-516              JUNCTION        0.35          1.000        0.000
  JCT-518              JUNCTION        0.36          1.500        0.000
  JCT-524              JUNCTION        0.10          0.623        0.377
  JCT-528              JUNCTION        0.14          1.500        0.000
  JCT-530              JUNCTION        0.34          1.500        0.000
  JCT-532              JUNCTION        0.33          2.000        0.000
  JCT-534              JUNCTION        0.21          3.000        0.000
  JCT-536              JUNCTION        0.24          2.000        0.000
  JCT-538              JUNCTION        0.13          1.000        0.000
  JCT-54               JUNCTION        0.11          3.282        0.817
  JCT-540              JUNCTION        0.52          1.500        0.000
  JCT-542              JUNCTION        0.76          1.000        0.000
  JCT-544              JUNCTION        1.21          1.000        0.000
  JCT-548              JUNCTION        0.04          3.000        0.000
  JCT-562              JUNCTION        0.15          3.000        0.000
  JCT-566              JUNCTION        0.50          1.500        0.000
  JCT-568              JUNCTION        0.09          2.542        0.458
  JCT-570              JUNCTION        0.10          2.000        0.000
  JCT-572              JUNCTION        0.41          4.000        0.000
  JCT-576              JUNCTION        0.26          2.246        1.254
  JCT-578              JUNCTION        0.25          2.729        0.271
  JCT-580              JUNCTION        0.12          2.438        0.063
  JCT-586              JUNCTION        0.06          0.242        0.258
  JCT-598              JUNCTION        0.11          0.925        4.075
  JCT-602              JUNCTION        1.79          3.000        0.000
  JCT-604              JUNCTION        6.74         12.000        0.000
  JCT-606              JUNCTION        0.75          3.000        0.000
  JCT-616              JUNCTION        2.16          3.000        0.000
  JCT-618              JUNCTION        0.16          3.730        0.510
  JCT-620              JUNCTION        0.14          3.000        0.000
  JCT-622              JUNCTION        0.14          3.000        0.000
  JCT-624              JUNCTION        0.13          3.000        0.000
  JCT-632              JUNCTION        0.08          3.000        0.000
  JCT-634              JUNCTION        0.32          3.000        0.000
  JCT-70               JUNCTION        0.40          1.500        0.000
  
  
  *********************
  Node Flooding Summary
  *********************
  
  Flooding refers to all water that overflows a node, whether it ponds or not.
  --------------------------------------------------------------------------
                                                             Total   Maximum
                                 Maximum   Time of Max       Flood    Ponded
                        Hours       Rate    Occurrence      Volume     Depth
  Node                 Flooded       CFS   days hr:min    10^6 gal      Feet
  --------------------------------------------------------------------------
  JCT-132                 0.02      3.80      0  01:26       0.000     0.000
  JCT-134                 0.04      3.37      0  01:28       0.001     0.000
  JCT-196                 0.01     24.45      0  01:31       0.001     0.000
  JCT-20                  0.12     12.30      0  01:30       0.019     0.000
  JCT-204                 0.01     13.49      0  01:22       0.000     0.000
  JCT-212                 0.01     58.87      0  01:36       0.003     0.000
  JCT-220                 0.01      0.89      0  01:30       0.000     0.000
  JCT-232                 0.31      1.02      0  01:44       0.006     0.000
  JCT-250                 1.84     30.48      0  01:30       0.662     0.000
  JCT-260                 0.01      0.57      0  01:30       0.000     0.000
  JCT-278                 0.21     18.11      0  01:22       0.026     0.000
  JCT-296                 0.23     29.89      0  01:30       0.092     0.000
  JCT-298                 0.15     36.74      0  01:30       0.073     0.000
  JCT-30                  0.01      8.94      0  01:23       0.000     0.000
  JCT-304                 0.22     23.13      0  01:33       0.087     0.000
  JCT-32                  0.01      0.56      0  01:23       0.000     0.000
  JCT-334                 0.01    152.06      0  01:30       0.005     0.000
  JCT-384                 0.51     26.09      0  01:43       0.236     0.000
  JCT-400                 0.10     13.56      0  01:30       0.022     0.000
  JCT-402                 0.01      0.20      0  01:27       0.000     0.000
  JCT-404                 0.01      3.57      0  01:27       0.000     0.000
  JCT-406                 0.09      3.11      0  01:30       0.003     0.000
  JCT-408                 0.30     52.56      0  01:30       0.231     0.000
  JCT-410                 0.29     17.55      0  01:30       0.100     0.000
  JCT-412                 0.23     15.47      0  01:30       0.049     0.000
  JCT-414                 0.16      3.80      0  01:30       0.007     0.000
  JCT-416                 0.01      2.99      0  01:24       0.000     0.000
  JCT-418                 0.20     18.25      0  01:30       0.050     0.000
  JCT-420                 0.01      0.43      0  01:24       0.000     0.000
  JCT-424                 0.17      9.94      0  01:30       0.022     0.000
  JCT-426                 0.21      9.21      0  01:30       0.033     0.000
  JCT-432                 0.12     15.86      0  01:30       0.028     0.000
  JCT-434                 0.01      3.89      0  01:27       0.000     0.000
  JCT-436                 0.01      0.77      0  01:28       0.000     0.000
  JCT-438                 0.01      1.60      0  01:28       0.000     0.000
  JCT-456                 0.01      5.67      0  01:31       0.000     0.000
  JCT-466                 0.01      3.78      0  01:21       0.000     0.000
  JCT-474                 0.08      2.84      0  01:30       0.003     0.000
  JCT-486                 0.18     22.42      0  01:30       0.056     0.000
  JCT-492                 1.37    110.94      0  01:30       0.798     0.000
  JCT-494                 0.07      7.49      0  01:30       0.007     0.000
  JCT-50                  0.12      7.09      0  01:30       0.011     0.000
  JCT-504                 0.11      7.40      0  01:30       0.010     0.000
  JCT-512                 0.01     11.93      0  01:34       0.001     0.000
  JCT-514                 0.24     10.88      0  01:22       0.027     0.000
  JCT-516                 0.32     11.79      0  01:30       0.067     0.000
  JCT-518                 0.35     21.89      0  01:30       0.136     0.000
  JCT-528                 0.01      0.20      0  01:30       0.000     0.000
  JCT-530                 0.27     19.92      0  01:30       0.101     0.000
  JCT-532                 0.18     13.95      0  01:30       0.035     0.000
  JCT-534                 0.01      2.25      0  01:24       0.000     0.000
  JCT-536                 0.01     14.62      0  01:29       0.001     0.000
  JCT-538                 0.01      1.68      0  01:30       0.000     0.000
  JCT-540                 0.15      8.00      0  01:35       0.022     0.000
  JCT-542                 0.40     11.56      0  01:34       0.084     0.000
  JCT-544                 0.63     11.66      0  01:34       0.127     0.000
  JCT-548                 0.01      1.80      0  01:30       0.000     0.000
  JCT-562                 0.11     11.56      0  01:30       0.018     0.000
  JCT-566                 0.37     44.38      0  01:30       0.229     0.000
  JCT-570                 0.08      5.44      0  01:30       0.007     0.000
  JCT-572                 0.01     14.68      0  01:22       0.000     0.000
  JCT-602                 0.09      6.77      0  01:39       0.007     0.000
  JCT-604                 0.11     12.73      0  01:32       0.014     0.000
  JCT-606                 0.04      1.36      0  01:30       0.001     0.000
  JCT-616                 0.13      5.56      0  01:30       0.010     0.000
  JCT-620                 0.04      2.57      0  01:27       0.000     0.000
  JCT-622                 0.12     12.14      0  01:30       0.021     0.000
  JCT-624                 0.01      3.04      0  01:27       0.000     0.000
  JCT-632                 0.01      2.63      0  01:28       0.000     0.000
  JCT-634                 0.01      7.71      0  01:22       0.000     0.000
  JCT-70                  0.01      7.18      0  01:22       0.000     0.000
  STOR-22                 0.09    129.16      0  01:31       0.185     0.000
  
  
  **********************
  Storage Volume Summary
  **********************
  
  --------------------------------------------------------------------------------------------------
                         Average     Avg  Evap Exfil       Maximum     Max    Time of Max    Maximum
                          Volume    Pcnt  Pcnt  Pcnt        Volume    Pcnt     Occurrence    Outflow
  Storage Unit          1000 ft3    Full  Loss  Loss      1000 ft3    Full    days hr:min        CFS
  --------------------------------------------------------------------------------------------------
  STOR-10                 27.511      14     0     0       143.135      72       0  01:43     140.83
  STOR-12                  4.139       4     0     0        31.470      33       0  01:35      52.05
  STOR-14                 13.212      25     0     0        34.700      65       0  01:43      11.85
  STOR-16                 12.949      13     0     0        36.804      37       0  01:44      11.47
  STOR-18                  1.581       2     0     0        11.280      17       0  01:37      21.52
  STOR-20                  4.883      15     0     0        17.057      52       0  01:35      15.86
  STOR-22                  1.996      12     0     0        16.200     100       0  01:29     284.73
  
  
  ***********************
  Outfall Loading Summary
  ***********************
  
  ---------------------------------------------------------------------------------------
                         Flow       Avg       Max       Total         Total         Total
                         Freq      Flow      Flow      Volume           TSS             P
  Outfall Node           Pcnt       CFS       CFS    10^6 gal           lbs           lbs
  ---------------------------------------------------------------------------------------
  JCT-374               87.40     46.68    162.21       6.883         0.000         0.000
  OFALL-10              87.51     38.74    284.58       4.421         0.000         0.000
  ---------------------------------------------------------------------------------------
  System                87.46     85.41    433.21      11.304         0.000         0.000
  
  
  ********************
  Link Flow Summary
  ********************
  
  -----------------------------------------------------------------------------
                                 Maximum  Time of Max   Maximum    Max/    Max/
                                  |Flow|   Occurrence   |Veloc|    Full    Full
  Link                 Type          CFS  days hr:min    ft/sec    Flow   Depth
  -----------------------------------------------------------------------------
  CDT-101              CONDUIT     70.88     0  01:25     14.97    0.85    1.00
  CDT-103              CONDUIT     49.63     0  01:30     17.31    1.03    1.00
  CDT-105              CONDUIT     15.71     0  01:39      8.89    1.57    1.00
  CDT-109              CONDUIT      6.69     0  01:30     10.10    0.34    0.40
  CDT-11               CONDUIT     33.81     0  01:30     10.83    1.30    0.98
  CDT-111              CONDUIT      6.41     0  01:30      9.42    0.35    0.41
  CDT-113              CONDUIT      4.58     0  01:30      4.91    0.44    0.52
  CDT-115              CONDUIT     56.75     0  01:30     20.01    0.35    0.42
  CDT-117              CONDUIT     61.87     0  01:30     18.12    0.30    0.38
  CDT-119              CONDUIT      9.80     0  01:30      6.88    0.92    0.75
  CDT-121              CONDUIT     20.41     0  01:30     15.76    0.39    0.43
  CDT-123              CONDUIT     20.71     0  01:30     12.46    0.95    0.89
  CDT-125              CONDUIT     68.95     0  01:30     18.19    0.33    0.53
  CDT-127              CONDUIT     24.84     0  01:28     14.05    1.88    1.00
  CDT-129              CONDUIT     40.77     0  01:30     16.71    0.50    0.50
  CDT-13               CONDUIT      5.09     0  01:31      5.23    0.09    0.78
  CDT-131              CONDUIT     70.51     0  01:30     14.25    0.76    0.66
  CDT-133              CONDUIT     77.94     0  01:30     26.47    0.20    0.44
  CDT-135              CONDUIT     70.15     0  01:30     16.95    0.33    0.48
  CDT-137              CONDUIT    154.03     0  01:31     13.95    0.74    0.83
  CDT-139              CONDUIT     37.75     0  01:30     16.30    0.82    0.69
  CDT-141              CONDUIT     12.09     0  01:30     23.86    0.22    0.33
  CDT-143              CONDUIT     49.72     0  01:30     18.00    0.51    0.55
  CDT-145              CONDUIT     49.55     0  01:30     16.41    0.65    0.59
  CDT-147              CONDUIT     16.53     0  01:29     13.28    0.87    0.71
  CDT-149              CONDUIT     33.38     0  01:30     27.06    1.87    0.90
  CDT-15               CONDUIT     44.40     0  01:31      9.26    1.17    0.94
  CDT-151              CONDUIT     73.76     0  01:30     40.54    0.19    0.64
  CDT-153              CONDUIT     38.08     0  01:30     20.64    0.60    0.57
  CDT-155              CONDUIT    218.31     0  01:30     19.33    0.45    0.73
  CDT-157              CONDUIT    215.33     0  01:29     15.58    0.75    1.00
  CDT-17               CONDUIT     45.94     0  01:31      8.86    0.95    0.69
  CDT-19               CONDUIT      6.06     0  01:30      4.58    0.34    0.70
  CDT-21               CONDUIT     11.92     0  01:37      6.99    1.00    1.00
  CDT-229              CONDUIT     20.27     0  01:30      6.58    0.73    1.00
  CDT-23               CONDUIT     22.71     0  01:26     13.05    1.02    1.00
  CDT-231              CONDUIT      9.22     0  01:30      3.94    0.33    1.00
[...]
  CDT-477                 2.48   0.12  0.00  0.00  0.85  0.03  0.00  0.00  0.84  0.00
  CDT-479                 2.94   0.12  0.00  0.00  0.00  0.06  0.00  0.82  0.03  0.00
  CDT-481                 1.97   0.12  0.00  0.00  0.12  0.00  0.00  0.76  0.00  0.00
  CDT-483                 2.36   0.12  0.00  0.00  0.00  0.00  0.00  0.88  0.00  0.00
  CDT-485                 3.22   0.12  0.00  0.00  0.12  0.00  0.00  0.76  0.00  0.00
  CDT-487                 3.90   0.12  0.00  0.00  0.29  0.58  0.00  0.00  0.80  0.00
  CDT-489                 5.92   0.12  0.00  0.00  0.21  0.01  0.00  0.66  0.08  0.00
  CDT-49                  5.31   0.12  0.00  0.00  0.09  0.00  0.00  0.79  0.00  0.00
  CDT-491                 2.87   0.12  0.00  0.00  0.22  0.00  0.00  0.65  0.01  0.00
  CDT-493                 4.89   0.12  0.00  0.00  0.18  0.70  0.00  0.00  0.85  0.00
  CDT-495                 1.91   0.12  0.00  0.00  0.81  0.07  0.00  0.00  0.72  0.00
  CDT-497                 4.74   0.12  0.00  0.00  0.78  0.10  0.00  0.00  0.84  0.00
  CDT-499                 9.43   0.12  0.00  0.00  0.54  0.33  0.00  0.00  0.81  0.00
  CDT-501                10.31   0.12  0.00  0.00  0.16  0.07  0.00  0.65  0.10  0.00
  CDT-503                 7.43   0.12  0.00  0.00  0.12  0.10  0.00  0.66  0.10  0.00
  CDT-505                 4.38   0.12  0.00  0.00  0.10  0.10  0.00  0.67  0.08  0.00
  CDT-507                 1.00   0.12  0.00  0.00  0.18  0.69  0.00  0.00  0.00  0.00
  CDT-509                 2.53   0.12  0.00  0.00  0.28  0.02  0.00  0.57  0.09  0.00
  CDT-51                  1.00   0.12  0.00  0.00  0.23  0.08  0.00  0.57  0.22  0.00
  CDT-511                 1.43   0.12  0.00  0.00  0.31  0.00  0.00  0.56  0.02  0.00
  CDT-513                 2.67   0.12  0.00  0.00  0.84  0.03  0.00  0.00  0.83  0.00
  CDT-515                 2.68   0.12  0.06  0.00  0.66  0.16  0.00  0.00  0.84  0.00
  CDT-517                 1.30   0.12  0.00  0.00  0.49  0.39  0.00  0.00  0.00  0.00
  CDT-519                 1.55   0.12  0.00  0.00  0.64  0.24  0.00  0.00  0.74  0.00
  CDT-521                 7.12   0.12  0.00  0.00  0.86  0.02  0.00  0.00  0.83  0.00
  CDT-523                 1.76   0.12  0.00  0.00  0.87  0.01  0.00  0.00  0.82  0.00
  CDT-525                 2.77   0.12  0.00  0.00  0.11  0.10  0.00  0.67  0.09  0.00
  CDT-527                 3.07   0.12  0.00  0.00  0.13  0.10  0.00  0.65  0.11  0.00
  CDT-529                 2.25   0.12  0.00  0.00  0.11  0.00  0.00  0.77  0.00  0.00
  CDT-53                  1.00   0.12  0.00  0.00  0.00  0.88  0.00  0.00  0.86  0.00
  CDT-531                 2.99   0.12  0.01  0.00  0.85  0.01  0.00  0.00  0.74  0.00
  CDT-533                 3.75   0.12  0.00  0.00  0.84  0.03  0.00  0.00  0.80  0.00
  CDT-535                 6.01   0.12  0.00  0.00  0.11  0.11  0.00  0.66  0.11  0.00
  CDT-537                 2.27   0.12  0.00  0.00  0.07  0.00  0.00  0.81  0.00  0.00
  CDT-539                 1.86   0.12  0.00  0.00  0.64  0.24  0.00  0.00  0.01  0.00
  CDT-541                 1.55   0.12  0.04  0.00  0.83  0.01  0.00  0.00  0.82  0.00
  CDT-543                 2.97   0.12  0.00  0.00  0.86  0.01  0.00  0.00  0.70  0.00
  CDT-545                 4.81   0.12  0.00  0.00  0.55  0.33  0.00  0.00  0.82  0.00
  CDT-547                 4.77   0.12  0.00  0.00  0.53  0.34  0.00  0.00  0.84  0.00
  CDT-549                 1.73   0.12  0.00  0.00  0.55  0.33  0.00  0.00  0.61  0.00
  CDT-55                  1.80   0.12  0.00  0.00  0.00  0.00  0.00  0.88  0.00  0.00
  CDT-551                 5.23   0.12  0.00  0.00  0.55  0.33  0.00  0.00  0.81  0.00
  CDT-553                 1.36   0.12  0.00  0.00  0.60  0.28  0.00  0.00  0.48  0.00
  CDT-555                 1.48   0.12  0.00  0.00  0.87  0.00  0.00  0.00  0.83  0.00
  CDT-557                 2.94   0.12  0.00  0.00  0.06  0.00  0.00  0.81  0.00  0.00
  CDT-559                 1.70   0.12  0.00  0.00  0.00  0.00  0.00  0.88  0.00  0.00
  CDT-561                 2.49   0.12  0.00  0.00  0.00  0.00  0.00  0.88  0.00  0.00
  CDT-563                 7.68   1.00  0.00  0.00  0.00  0.00  0.00  0.00  0.00  0.00
  CDT-565                 5.56   0.12  0.00  0.00  0.00  0.00  0.00  0.88  0.00  0.00
  CDT-567                 3.07   0.12  0.00  0.00  0.00  0.00  0.00  0.88  0.00  0.00
  CDT-569                 1.08   0.12  0.00  0.00  0.00  0.00  0.00  0.88  0.00  0.00
  CDT-57                  1.00   0.12  0.00  0.00  0.00  0.00  0.00  0.88  0.00  0.00
  CDT-571                 1.32   0.12  0.00  0.00  0.00  0.00  0.00  0.88  0.00  0.00
  CDT-573                 3.10   0.12  0.00  0.00  0.00  0.00  0.00  0.88  0.00  0.00
  CDT-575                 2.63   0.12  0.00  0.00  0.05  0.01  0.00  0.81  0.02  0.00
  CDT-577                 6.80   0.12  0.00  0.00  0.34  0.54  0.00  0.00  0.86  0.00
  CDT-579                 7.40   0.12  0.00  0.00  0.13  0.75  0.00  0.00  0.85  0.00
  CDT-581                 6.22   0.12  0.00  0.00  0.55  0.33  0.00  0.00  0.86  0.00
  CDT-583                 1.00   0.12  0.00  0.00  0.00  0.00  0.00  0.88  0.00  0.00
  CDT-585                 4.76   0.12  0.00  0.00  0.00  0.08  0.00  0.80  0.04  0.00
  CDT-587                 3.13   0.12  0.00  0.00  0.00  0.03  0.00  0.85  0.01  0.00
  CDT-589                 1.07   0.12  0.00  0.00  0.00  0.00  0.00  0.88  0.00  0.00
  CDT-59                  1.00   0.12  0.00  0.00  0.00  0.88  0.00  0.00  0.86  0.00
  CDT-591                 1.74   0.12  0.00  0.00  0.00  0.87  0.00  0.00  0.01  0.00
  CDT-593                 1.00   0.12  0.01  0.00  0.68  0.19  0.00  0.00  0.86  0.00
  CDT-595                 7.57   0.12  0.00  0.00  0.00  0.00  0.00  0.88  0.00  0.00
  CDT-597                 1.00   0.12  0.00  0.00  0.00  0.87  0.00  0.00  0.04  0.00
  CDT-599                 1.00   0.12  0.05  0.00  0.00  0.00  0.83  0.00  0.00  0.00
  CDT-601                 1.00   0.12  0.00  0.00  0.00  0.00  0.00  0.88  0.00  0.00
  CDT-603                 1.08   0.12  0.00  0.00  0.00  0.00  0.00  0.88  0.00  0.00
  CDT-605                 6.04   0.93  0.07  0.00  0.00  0.00  0.00  0.00  0.00  0.00
  CDT-607                 1.03   0.12  0.00  0.00  0.00  0.00  0.00  0.88  0.00  0.00
  CDT-609                 1.00   0.12  0.00  0.00  0.00  0.00  0.00  0.88  0.00  0.00
  CDT-61                  4.80   0.12  0.01  0.00  0.59  0.28  0.00  0.00  0.84  0.00
  CDT-611                 3.52   0.12  0.00  0.00  0.00  0.00  0.00  0.88  0.00  0.00
  CDT-613                 3.93   0.12  0.00  0.00  0.00  0.00  0.00  0.88  0.00  0.00
  CDT-615                 4.11   0.12  0.00  0.00  0.00  0.00  0.00  0.88  0.00  0.00
  CDT-617                 1.46   0.12  0.00  0.00  0.08  0.02  0.00  0.78  0.02  0.00
  CDT-619                 1.91   0.12  0.00  0.00  0.05  0.05  0.00  0.78  0.03  0.00
  CDT-621                 1.00   0.12  0.00  0.00  0.53  0.02  0.00  0.33  0.37  0.00
  CDT-623                 1.00   0.12  0.00  0.00  0.46  0.41  0.00  0.00  0.00  0.00
  CDT-625                 1.00   0.12  0.00  0.00  0.02  0.11  0.00  0.75  0.06  0.00
  CDT-627                 1.00   0.12  0.00  0.00  0.00  0.00  0.00  0.88  0.00  0.00
  CDT-629                 1.77   0.12  0.00  0.00  0.84  0.04  0.00  0.00  0.86  0.00
  CDT-63                  1.00   0.12  0.00  0.00  0.57  0.31  0.00  0.00  0.81  0.00
  CDT-631                 1.00   0.12  0.00  0.00  0.87  0.00  0.00  0.00  0.06  0.00
  CDT-633                 6.31   0.12  0.00  0.00  0.83  0.04  0.00  0.00  0.84  0.00
  CDT-635                 1.81   0.12  0.00  0.00  0.44  0.43  0.00  0.00  0.84  0.00
  CDT-637                 1.00   0.12  0.00  0.00  0.43  0.44  0.00  0.00  0.83  0.00
  CDT-639                 2.16   0.12  0.00  0.00  0.80  0.07  0.00  0.00  0.84  0.00
  CDT-641                 1.73   0.12  0.00  0.00  0.38  0.50  0.00  0.00  0.54  0.00
  CDT-643                10.79   0.12  0.00  0.00  0.00  0.03  0.00  0.85  0.01  0.00
  CDT-645                 6.74   0.12  0.00  0.00  0.06  0.07  0.00  0.75  0.05  0.00
  CDT-647                 6.80   0.12  0.00  0.00  0.09  0.03  0.00  0.75  0.02  0.00
  CDT-649                 1.00   0.12  0.00  0.00  0.30  0.58  0.00  0.00  0.25  0.00
  CDT-69                  1.00   0.12  0.00  0.00  0.32  0.56  0.00  0.00  0.81  0.00
  CDT-71                  1.00   0.12  0.00  0.00  0.10  0.10  0.00  0.68  0.08  0.00
  CDT-73                  2.70   0.12  0.00  0.00  0.30  0.58  0.00  0.00  0.02  0.00
  CDT-75                  4.21   0.12  0.00  0.00  0.46  0.42  0.00  0.00  0.86  0.00
  CDT-77                  1.00   0.12  0.00  0.00  0.04  0.07  0.00  0.76  0.06  0.00
  CDT-79                  1.00   0.12  0.00  0.00  0.00  0.22  0.00  0.66  0.15  0.00
  CDT-81                  1.00   0.12  0.00  0.00  0.00  0.00  0.00  0.88  0.00  0.00
  CDT-87                  2.36   0.12  0.00  0.00  0.00  0.00  0.00  0.88  0.00  0.00
  CDT-89                  1.00   0.12  0.00  0.00  0.27  0.61  0.00  0.00  0.63  0.00
  CDT-91                  1.52   0.12  0.00  0.00  0.54  0.34  0.00  0.00  0.86  0.00
  CDT-93                  1.00   0.12  0.00  0.00  0.03  0.11  0.00  0.73  0.11  0.00
  CDT-95                  1.53   0.12  0.00  0.00  0.47  0.08  0.00  0.33  0.38  0.00
  CDT-97                  1.00   0.12  0.00  0.00  0.55  0.00  0.00  0.33  0.03  0.00
  CDT-99                  1.00   0.12  0.00  0.00  0.07  0.01  0.00  0.80  0.01  0.00
  
  
  *************************
  Conduit Surcharge Summary
  *************************
  
  ----------------------------------------------------------------------------
                                                           Hours        Hours 
                         --------- Hours Full --------   Above Full   Capacity
  Conduit                Both Ends  Upstream  Dnstream   Normal Flow   Limited
  ----------------------------------------------------------------------------
  CDT-101                     0.28      0.28      3.03      0.01         0.01
  CDT-103                     0.17      0.17      0.28      0.15         0.15
  CDT-105                     2.77      2.77      3.17      1.11         0.01
  CDT-11                      0.01      0.11      0.01      0.16         0.01
  CDT-123                     0.01      0.09      0.01      0.01         0.01
  CDT-127                     0.20      0.24      0.20      0.27         0.20
  CDT-13                      0.01      0.01      0.01      0.01         0.01
  CDT-137                     0.01      0.01      0.09      0.01         0.01
  CDT-147                     0.01      0.20      0.01      0.01         0.01
  CDT-149                     0.01      0.01      0.22      0.23         0.01
  CDT-15                      0.01      0.07      0.01      0.10         0.01
  CDT-151                     0.01      0.01      0.09      0.01         0.01
  CDT-155                     0.01      0.01      0.02      0.01         0.01
  CDT-157                     0.02      0.02      0.14      0.01         0.01
  CDT-19                      0.01      0.01      0.25      0.01         0.01
  CDT-21                      0.25      0.25      0.40      0.01         0.01
  CDT-229                     0.42      0.42      3.62      0.01         0.01
  CDT-23                      0.13      0.13      0.40      0.01         0.01
  CDT-231                     0.52      0.52      3.62      0.01         0.01
  CDT-233                     0.01      0.01      4.04      0.01         0.01
  CDT-235                     0.22      0.22      1.91      0.01         0.01
  CDT-237                     0.01      1.27      0.01      1.34         0.01
  CDT-25                      0.26      0.26      0.30      0.01         0.01
  CDT-27                      0.01      0.01      0.03      0.01         0.01
  CDT-279                     0.01      0.01      0.07      0.01         0.01
  CDT-283                     1.26      1.27      1.27      1.30         1.26
  CDT-29                      0.24      0.24      0.30      0.19         0.20
  CDT-31                      0.11      0.11      0.15      0.01         0.01
  CDT-33                      0.03      0.03      0.15      0.01         0.01
  CDT-39                      0.01      0.01      0.05      0.01         0.01
  CDT-419                     0.01      0.01      0.24      0.01         0.01
  CDT-423                     0.01      0.11      0.01      0.15         0.01
  CDT-425                     0.01      0.01      0.01      0.01         0.01
  CDT-427                     0.01      0.01      0.28      0.01         0.01
  CDT-429                     0.01      0.01      0.04      0.01         0.01
  CDT-431                     0.04      0.04      0.28      0.01         0.01
  CDT-437                     0.01      0.01      0.14      0.01         0.01
  CDT-439                     0.14      0.14      0.25      0.10         0.10
  CDT-441                     0.25      0.25      0.27      0.27         0.25
  CDT-445                     0.01      0.01      0.01      1.14         0.01
  CDT-447                     0.15      0.15      4.15      0.08         0.08
  CDT-449                     0.01      0.01      4.15      0.01         0.01
  CDT-45                      0.30      0.30      0.98      0.01         0.01
  CDT-451                     0.01      0.01      4.15      0.01         0.01
  CDT-453                     0.01      0.01      4.15      0.01         0.01
  CDT-455                     0.01      0.01      1.24      0.01         0.01
  CDT-457                     0.01      0.01      1.24      0.01         0.01
  CDT-459                     0.24      0.24      1.56      0.01         0.01
  CDT-461                     0.13      0.13      2.08      0.01         0.01
  CDT-463                     0.52      0.52      2.08      0.01         0.01
  CDT-465                     0.76      0.76      2.08      0.01         0.01
  CDT-467                     1.21      1.21      2.08      0.19         0.01
  CDT-469                     2.32      2.32      2.49      0.23         0.01
  CDT-471                     1.12      1.27      1.26      0.96         0.34
  CDT-475                     0.01      0.08      0.01      0.03         0.01
  CDT-479                     0.10      0.12      0.12      0.15         0.10
  CDT-481                     0.01      0.06      0.01      0.18         0.01
  CDT-485                     0.36      0.36      0.46      0.01         0.01
  CDT-487                     0.46      0.46      0.50      0.01         0.01
  CDT-489                     0.48      0.48      0.50      0.01         0.01
  CDT-49                      0.41      0.98      0.47      0.47         0.41
  CDT-491                     0.49      0.49      0.50      0.01         0.01
  CDT-495                     0.09      0.09      0.12      0.01         0.01
  CDT-497                     0.10      0.10      0.12      0.01         0.01
  CDT-499                     0.35      0.35      0.38      0.01         0.01
  CDT-501                     0.35      0.35      0.41      0.01         0.01
  CDT-503                     0.36      0.36      0.41      0.01         0.01
  CDT-505                     0.38      0.38      0.41      0.01         0.01
  CDT-507                     0.01      0.50      0.01      0.37         0.01
  CDT-509                     0.47      0.47      0.98      0.13         0.03
  CDT-51                      0.12      0.12      0.98      0.01         0.01
  CDT-511                     0.41      0.41      0.98      0.01         0.01
  CDT-513                     0.11      0.11      0.12      0.01         0.01
  CDT-515                     0.11      0.11      0.12      0.01         0.01
  CDT-517                     0.12      0.16      0.12      0.14         0.06
  CDT-519                     0.24      0.24      0.24      0.03         0.02
  CDT-521                     0.21      0.21      0.24      0.01         0.01
  CDT-523                     0.22      0.22      0.24      0.01         0.01
  CDT-525                     0.29      0.29      0.30      0.01         0.01
  CDT-527                     0.29      0.29      0.30      0.01         0.01
  CDT-529                     0.30      0.30      0.30      0.07         0.06
  CDT-531                     0.33      0.33      0.40      0.01         0.01
  CDT-533                     0.33      0.33      0.40      0.01         0.01
  CDT-535                     0.21      0.21      0.26      0.01         0.01
  CDT-537                     0.39      0.40      0.42      0.44         0.39
  CDT-539                     0.25      0.25      0.25      0.27         0.24
  CDT-541                     0.22      0.22      0.25      0.01         0.01
  CDT-543                     0.24      0.24      0.25      0.01         0.01
  CDT-545                     0.23      0.23      0.25      0.01         0.01
  CDT-55                      0.01      0.01      0.01      0.05         0.01
  CDT-551                     0.12      0.12      0.13      0.01         0.01
  CDT-553                     0.13      0.22      0.13      0.25         0.13
  CDT-555                     0.12      0.12      0.13      0.01         0.01
  CDT-557                     0.14      0.14      0.15      0.11         0.09
  CDT-559                     0.04      0.15      0.04      0.22         0.04
  CDT-561                     0.01      0.01      0.01      0.02         0.01
  CDT-565                     0.01      0.01      0.01      0.06         0.01
  CDT-569                     0.01      0.06      0.01      0.17         0.01
  CDT-571                     0.01      0.10      0.01      0.15         0.01
  CDT-577                     0.01      0.01      0.01      0.01         0.01
  CDT-593                     0.01      0.01      0.11      0.01         0.01
  CDT-595                     0.01      0.11      0.01      0.01         0.01
  CDT-599                     0.01      0.01      6.74      0.28         0.01
  CDT-603                     0.01      0.01      0.01      0.13         0.01
  CDT-61                      0.10      0.10      0.12      0.01         0.01
  CDT-617                     0.10      0.10      0.11      0.01         0.01
  CDT-619                     0.08      0.08      0.11      0.01         0.01
  CDT-621                     0.76      0.76      3.46      0.01         0.01
  CDT-625                     0.01      0.01      0.11      0.01         0.01
  CDT-629                     0.01      0.01      3.27      0.01         0.01
  CDT-63                      0.12      0.12      0.38      0.01         0.01
  CDT-631                     2.16      2.16      2.32      0.22         0.22
  CDT-633                     0.14      0.14      0.16      0.01         0.01
  CDT-635                     0.14      0.14      0.16      0.01         0.01
  CDT-637                     0.16      0.16      0.18      0.18         0.16
  CDT-639                     0.13      0.13      0.16      0.01         0.01
  CDT-645                     0.08      0.08      0.11      0.01         0.01
  CDT-647                     0.32      0.32      0.33      0.01         0.01
  CDT-649                     0.09      0.09      0.35      0.01         0.01
  CDT-69                      0.33      0.33      0.41      0.01         0.01
  CDT-71                      0.40      0.41      0.42      0.47         0.40
  CDT-73                      0.40      0.40      0.46      0.01         0.01
  CDT-77                      0.01      0.01      0.46      0.01         0.01
  CDT-91                      0.01      0.01      0.25      0.01         0.01
  CDT-93                      0.01      0.01      0.32      0.01         0.01
  CDT-95                      0.32      0.32      1.98      0.01         0.01
  CDT-97                      3.17      3.17      3.46      1.25         0.01
  CDT-99                      0.28      0.28      0.33      0.29         0.27
  

  Analysis begun on:  Fri Nov 29 09:59:56 2019
  Analysis ended on:  Fri Nov 29 09:59:58 2019
  Total elapsed time: 00:00:02