
  EPA STORM WATER MANAGEMENT MODEL - VERSION 5.1 (Build 5.1.013)
  --------------------------------------------------------------

  WARNING 04: minimum elevation drop used for Conduit S-1-L-M05-L105to104
  WARNING 04: minimum elevation drop used for Conduit S-2-L-M(beside-R)-2to3(u)
  WARNING 04: minimum elevation drop used for Conduit S-2-L-M(beside-R)-4-1-5to4(u)
  WARNING 04: minimum elevation drop used for Conduit S-2-L-M(beside-R)-4-2-11to10(u)
  WARNING 04: minimum elevation drop used for Conduit S-2-L-M(beside-R)-4-2-3to2(u)
  WARNING 04: minimum elevation drop used for Conduit S-2-L-M(beside-R)-4-2-4to3(u)
  WARNING 04: minimum elevation drop used for Conduit S-2-L-M(beside-R3)-1-1-2to1(u)
  WARNING 04: minimum elevation drop used for Conduit S-2-L-M(beside-R3)-1-1-3to2(u)
  WARNING 04: minimum elevation drop used for Conduit S-2-L-M(beside-R5)-10to101
  WARNING 04: minimum elevation drop used for Conduit S-2-L-M02-L104-L102-105to104
  WARNING 04: minimum elevation drop used for Conduit S-2-L-M03-L101-18-104to103(u)
  WARNING 04: minimum elevation drop used for Conduit S-2-L-M03-L101-22to21(u)
  WARNING 04: minimum elevation drop used for Conduit S-2-L-M03-L101-23to22(u)
  WARNING 04: minimum elevation drop used for Conduit S-2-L-M03-L101-2to1(u)
  WARNING 04: minimum elevation drop used for Conduit S-2-L-M03-L101-5to4(u)
  WARNING 04: minimum elevation drop used for Conduit S-2-L-M03-L102*1-7to6(u)
  WARNING 04: minimum elevation drop used for Conduit S-2-L-M06(beside-L1)-2to3(u)
  WARNING 04: minimum elevation drop used for Conduit S-2-L-M06(beside-L2)-1to2(u)
  WARNING 04: minimum elevation drop used for Conduit S-2-L-M07-L01-104to103(u)
  WARNING 03: negative offset ignored for Link S-2-L-M07-L01-201tomain(u)
  WARNING 04: minimum elevation drop used for Conduit S-2-L-M14to13
  WARNING 04: minimum elevation drop used for Conduit S-2-L-M17to16
  WARNING 04: minimum elevation drop used for Conduit S-2-L-M20-L104-L101-right-104tomain
  WARNING 04: minimum elevation drop used for Conduit S-2-L-M20-L104-L101-right-105tomain
  WARNING 04: minimum elevation drop used for Conduit S-2-L-M20-L104-L102to101
  WARNING 04: minimum elevation drop used for Conduit S-2-L-M20-L104-L103*1-5to4(u)
  WARNING 04: minimum elevation drop used for Conduit S-2-L-M20-L104-L103*1-6to5(u)
  WARNING 04: minimum elevation drop used for Conduit S-2-L-M20-L104-L103*1-7to6(u)
  WARNING 04: minimum elevation drop used for Conduit S-2-L-M20-L104-L105to104
  WARNING 04: minimum elevation drop used for Conduit S-2-L-M20-L109/link2,6-111to110(u)
  WARNING 04: minimum elevation drop used for Conduit S-2-L-M20-L109/link2,6-201-3to2(u)
  WARNING 04: minimum elevation drop used for Conduit S-2-L-M20-L109/link2,6-202-1to201(u)
  WARNING 04: minimum elevation drop used for Conduit S-2-L-M21(besideL)-2to1
  WARNING 04: minimum elevation drop used for Conduit S-2-L-M25to24
  WARNING 04: minimum elevation drop used for Conduit S-6-L-224
  WARNING 04: minimum elevation drop used for Conduit S-6-L-225
  WARNING 04: minimum elevation drop used for Conduit S-6-L-238
  WARNING 04: minimum elevation drop used for Conduit S-6-L-239
  WARNING 04: minimum elevation drop used for Conduit S-6-L-241
  WARNING 04: minimum elevation drop used for Conduit S-6-L-267
  WARNING 04: minimum elevation drop used for Conduit S-6-L-270-add
  WARNING 04: minimum elevation drop used for Conduit S-6-L-276
  WARNING 04: minimum elevation drop used for Conduit S-6-L-327
  WARNING 04: minimum elevation drop used for Conduit S-6-L-352
  WARNING 04: minimum elevation drop used for Conduit S-6-L-361
  WARNING 04: minimum elevation drop used for Conduit S-6-L-387
  WARNING 04: minimum elevation drop used for Conduit S-6-L-394
  WARNING 04: minimum elevation drop used for Conduit S-6-L-399
  WARNING 04: minimum elevation drop used for Conduit S-6-L-400
  WARNING 04: minimum elevation drop used for Conduit S-6-L-413
  WARNING 04: minimum elevation drop used for Conduit S-6-L-421
  WARNING 04: minimum elevation drop used for Conduit S-6-L-M-10-L102-107-101-3to2(u)
  WARNING 04: minimum elevation drop used for Conduit S-6-L-M10to10*1
  WARNING 04: minimum elevation drop used for Conduit S-6-L-M11to10
  WARNING 04: minimum elevation drop used for Conduit S-6-L-M13-L2-2-3to2(u)
  WARNING 04: minimum elevation drop used for Conduit S-6-L-M13-L4-10to9(u)
  WARNING 04: minimum elevation drop used for Conduit S-6-L-M13-L4-11to10(u)
  WARNING 04: minimum elevation drop used for Conduit S-6-L-M13-Lmain-2toM14
  WARNING 04: minimum elevation drop used for Conduit S-6-L-M22-right-10to9(u)
  WARNING 04: minimum elevation drop used for Conduit S-municipal-10
  WARNING 04: minimum elevation drop used for Conduit W-1-L-M102-L101-L106to105
  WARNING 08: elevation drop exceeds length for Conduit W-1-L-M102-L104-L102-02tomain
  WARNING 04: minimum elevation drop used for Conduit W-1-L-M102-L106-L02tomain
  WARNING 04: minimum elevation drop used for Conduit W-1-L-M105-L203to202
  WARNING 04: minimum elevation drop used for Conduit W-1-L-M105to104
  WARNING 03: negative offset ignored for Link W-2-L-M02-L103ro102
  WARNING 04: minimum elevation drop used for Conduit W-2-L-M04-L304-L102to101
  WARNING 04: minimum elevation drop used for Conduit W-2-L-M04-L307to308
  WARNING 04: minimum elevation drop used for Conduit W-2-L-M06-L203-01tomain
  WARNING 04: minimum elevation drop used for Conduit W-3-M03to02
  WARNING 08: elevation drop exceeds length for Conduit W-northmain3-sump
  WARNING 02: maximum depth increased for Node S-1-M05-L101
  WARNING 02: maximum depth increased for Node S-1-M05-L102
  WARNING 02: maximum depth increased for Node S-1-M05-L103
  WARNING 02: maximum depth increased for Node S-1-M07*1-L101-1(u)
  WARNING 02: maximum depth increased for Node S-1-M09*1-L101(u)
  WARNING 02: maximum depth increased for Node S-1-M09*1-L102(u)
  WARNING 02: maximum depth increased for Node S-1-M09*1-L103/end(u)
  WARNING 02: maximum depth increased for Node S-2-M(beside-R4)-1-1-3(u)
  WARNING 02: maximum depth increased for Node S-2-M(beside-R5)-1(u)
  WARNING 02: maximum depth increased for Node S-2-M03-L101-18-105(u)
  WARNING 02: maximum depth increased for Node S-2-M03-L102*1-9(u)
  WARNING 02: maximum depth increased for Node S-2-M06(beside-L1)-1(u)
  WARNING 02: maximum depth increased for Node S-2-M20-L104-L101-right-101(u)
  WARNING 02: maximum depth increased for Node S-2-M20-L104-L101-right-103(u)
  WARNING 02: maximum depth increased for Node S-2-M20-L104-L101-right-103-7(u)
  WARNING 02: maximum depth increased for Node S-2-M20-L104-L101-right-103-8(u)
  WARNING 02: maximum depth increased for Node S-2-M20-L104-L101-right-104(u)
  WARNING 02: maximum depth increased for Node S-2-M20-L104-L101-right-105(u)
  WARNING 02: maximum depth increased for Node S-2-M20-L104-L101-right-106(u)
  WARNING 02: maximum depth increased for Node S-2-M20-L104-L101-right-113-101-4(u)
  WARNING 02: maximum depth increased for Node S-2-M20-L104-L101-right-113-104-5(u)
  WARNING 02: maximum depth increased for Node S-2-M20-L104-L101-right-113-104-6(u)
  WARNING 02: maximum depth increased for Node S-2-M20-L104-L101-right-113-106-109(u)
  WARNING 02: maximum depth increased for Node S-2-M20-L104-L101-right-118-10(u)
  WARNING 02: maximum depth increased for Node S-2-M20-L104-L101-right-118-8(u)
  WARNING 02: maximum depth increased for Node S-2-M20-L104-L104
  WARNING 02: maximum depth increased for Node S-2-M20-L104-L105
  WARNING 02: maximum depth increased for Node S-2-M20-L109/link2,6-201-8(u)
  WARNING 02: maximum depth increased for Node S-2-M20-L109/link2,6-201-9(u)
  WARNING 02: maximum depth increased for Node S-2-M20-L109/link2,6-202-7(u)
  WARNING 02: maximum depth increased for Node S-2-M21(besideL)-8(u)
  WARNING 02: maximum depth increased for Node S-2-M21(besideL)-9(u)
  WARNING 02: maximum depth increased for Node S-2-M21-link-M20-L104-L101-2(u)
  WARNING 02: maximum depth increased for Node S-2-M21-link-M20-L104-L101-3(u)
  WARNING 02: maximum depth increased for Node S-4-M10-L201-101-111(u)
  WARNING 02: maximum depth increased for Node S-4-M10-L201-101-202(u)
  WARNING 02: maximum depth increased for Node S-4-M10-L201-101-203(u)
  WARNING 02: maximum depth increased for Node S-4-M10-L201-101-208(u)
  WARNING 02: maximum depth increased for Node S-4-M10-L201-202-104-2(u)
  WARNING 02: maximum depth increased for Node S-4-M10-L201-202-208-1(u)
  WARNING 02: maximum depth increased for Node S-6-M02-L-203(u)
  WARNING 02: maximum depth increased for Node S-6-M-10-L102-101(u)
  WARNING 02: maximum depth increased for Node S-6-M-10-L102-102(u)
  WARNING 02: maximum depth increased for Node S-6-M-10-L102-105(u)
  WARNING 02: maximum depth increased for Node S-6-M-10-L102-107-101(u)
  WARNING 02: maximum depth increased for Node S-6-M-10-L102-107-104(u)
  WARNING 02: maximum depth increased for Node S-6-M-10-L102-201(u)
  WARNING 02: maximum depth increased for Node S-6-M-10-L102-202(u)
  WARNING 02: maximum depth increased for Node S-6-M-10-L102-main(u)
  WARNING 02: maximum depth increased for Node S-6-M19-L104(u)
  WARNING 02: maximum depth increased for Node S-6-M19-L105(u)
  WARNING 02: maximum depth increased for Node S-6-M19-L106(u)
  WARNING 02: maximum depth increased for Node S-6-M19-L109(u)
  WARNING 02: maximum depth increased for Node S-6-M19-L202(u)
  WARNING 02: maximum depth increased for Node S-6-M19-L204(u)
  WARNING 02: maximum depth increased for Node S-6-M19-L205(u)
  WARNING 02: maximum depth increased for Node S-6-M19-L206(u)
  WARNING 02: maximum depth increased for Node S-6-M21-105-3(u)
  WARNING 02: maximum depth increased for Node S-6-M21-105-4(u)
  WARNING 02: maximum depth increased for Node S-6-M21-105-5(u)
  WARNING 02: maximum depth increased for Node S-6-M21-L108(u)
  WARNING 02: maximum depth increased for Node S-6-M21-L109(u)
  WARNING 02: maximum depth increased for Node S-6-M21-L116(u)
  WARNING 02: maximum depth increased for Node S-6-M21-L120(u)
  WARNING 02: maximum depth increased for Node S-6-M22-right-1(u)
  WARNING 02: maximum depth increased for Node S-6-M22-right-3(u)
  WARNING 02: maximum depth increased for Node W-2-M06-L101
  
  *********************************************************
  NOTE: The summary statistics displayed in this report are
  based on results found at every computational time step,  
  not just on results from each reporting time step.
  *********************************************************
  
  ****************
  Analysis Options
  ****************
  Flow Units ............... CMS
  Process Models:
    Rainfall/Runoff ........ YES
    RDII ................... NO
    Snowmelt ............... NO
    Groundwater ............ NO
    Flow Routing ........... YES
    Ponding Allowed ........ YES
    Water Quality .......... NO
  Infiltration Method ...... HORTON
  Flow Routing Method ...... DYNWAVE
  Surcharge Method ......... EXTRAN
  Starting Date ............ 08/05/2011 00:00:00
  Ending Date .............. 08/05/2011 05:00:00
  Antecedent Dry Days ...... 0.0
  Report Time Step ......... 00:00:30
  Wet Time Step ............ 00:00:30
  Dry Time Step ............ 00:00:30
  Routing Time Step ........ 1.00 sec
  Variable Time Step ....... NO
  Maximum Trials ........... 8
  Number of Threads ........ 1
  Head Tolerance ........... 0.001524 m
  
  
  **************************        Volume         Depth
  Runoff Quantity Continuity     hectare-m            mm
  **************************     ---------       -------
  Total Precipitation ......         0.759       100.627
  Evaporation Loss .........         0.000         0.000
  Infiltration Loss ........         0.002         0.290
  Surface Runoff ...........         0.741        98.262
  Final Storage ............         0.003         0.364
  Continuity Error (%) .....         1.700
  
  
  **************************        Volume        Volume
  Flow Routing Continuity        hectare-m      10^6 ltr
  **************************     ---------     ---------
  Dry Weather Inflow .......         0.000         0.000
  Wet Weather Inflow .......         0.741         7.409
  Groundwater Inflow .......         0.000         0.000
  RDII Inflow ..............         0.000         0.000
  External Inflow ..........         0.000         0.000
  External Outflow .........         0.380         3.796
  Flooding Loss ............         0.375         3.745
  Evaporation Loss .........         0.000         0.000
  Exfiltration Loss ........         0.000         0.000
  Initial Stored Volume ....         0.001         0.013
  Final Stored Volume ......         0.016         0.155
  Continuity Error (%) .....        -3.700
  
  
  *************************
  Highest Continuity Errors
  *************************
  Node S-6-M19-L206(u) (-217.45%)
  Node S-6-M19-L104(u) (-46.98%)
  Node S-2-M03-L101-22(u) (-43.41%)
  Node S-2-M03-L101-21(u) (-37.38%)
  Node S-6-M13-L2-1-3(u) (20.85%)
  
  
  ********************************
  Highest Flow Instability Indexes
  ********************************
  Link S-2-L-M20-L104-L101-right-107-1to107(u) (33)
  Link S-6-L-M01tosump2 (31)
  Link S-6-L-M02to01 (31)
  Link S-6-L-M14to13 (30)
  Link S-2-L-M03-L102*1-4to3(u) (30)
  
  
  *************************
  Routing Time Step Summary
  *************************
  Minimum Time Step           :     1.00 sec
  Average Time Step           :     1.00 sec
  Maximum Time Step           :     1.00 sec
  Percent in Steady State     :     0.33
  Average Iterations per Step :     3.53
  Percent Not Converging      :    11.12
  
  
  ***************************
  Subcatchment Runoff Summary
  ***************************
  
  ------------------------------------------------------------------------------------------------------------------------------
                            Total      Total      Total      Total     Imperv       Perv      Total       Total     Peak  Runoff
                           Precip      Runon       Evap      Infil     Runoff     Runoff     Runoff      Runoff   Runoff   Coeff
  Subcatchment                 mm         mm         mm         mm         mm         mm         mm    10^6 ltr      CMS
  ------------------------------------------------------------------------------------------------------------------------------
  Land-358                 100.63       0.00       0.00       0.00     100.61       0.00     100.61        0.01     0.00   1.000
  Land-359                 100.63       0.00       0.00       0.00     100.61       0.00     100.61        0.01     0.00   1.000
  Land-364                 100.63       0.00       0.00       0.00     100.61       0.00     100.61        0.01     0.00   1.000
  Land-365                 100.63       0.00       0.00       0.00     100.61       0.00     100.61        0.01     0.00   1.000
  Land-368                 100.63       0.00       0.00       0.00     100.61       0.00     100.61        0.01     0.00   1.000
  Land-369                 100.63       0.00       0.00       0.00     100.61       0.00     100.61        0.01     0.00   1.000
  Land-371                 100.63       0.00       0.00       0.00     100.61       0.00     100.61        0.01     0.00   1.000
  Land-372                 100.63       0.00       0.00       0.00     100.61       0.00     100.61        0.01     0.00   1.000
  Land-373                 100.63     201.19       0.00       0.00     301.74       0.00     301.74        0.03     0.01   1.000
  Land-374                 100.63       0.00       0.00       0.00     100.61       0.00     100.61        0.01     0.00   1.000
  Land-375                 100.63       0.00       0.00       0.00     100.61       0.00     100.61        0.01     0.00   1.000
  Land-376                 100.63       0.00       0.00       0.00     100.61       0.00     100.61        0.01     0.00   1.000
  Land-377                 100.63       0.00       0.00       0.00     100.61       0.00     100.61        0.01     0.00   1.000
  Land-378                 100.63       0.00       0.00       0.00     100.61       0.00     100.61        0.01     0.00   1.000
  Land-379                 100.63       0.00       0.00       0.00     100.61       0.00     100.61        0.01     0.00   1.000
  Land-380                 100.63       0.00       0.00       0.00     100.61       0.00     100.61        0.01     0.00   1.000
  Land-381                 100.63       0.00       0.00       0.00     100.49       0.00     100.49        0.03     0.01   0.999
  Land-382                 100.63       0.00       0.00       0.00     100.61       0.00     100.61        0.01     0.00   1.000
  Land-383                 100.63       0.00       0.00       0.00     100.61       0.00     100.61        0.01     0.00   1.000
  Land-384                 100.63       0.00       0.00       0.00     100.61       0.00     100.61        0.01     0.00   1.000
  Land-385                 100.63       0.00       0.00       0.00     100.61       0.00     100.61        0.01     0.00   1.000
  Land-386                 100.63       0.00       0.00       0.00     100.61       0.00     100.61        0.01     0.00   1.000
  Land-387                 100.63       0.00       0.00       0.00     100.61       0.00     100.61        0.01     0.00   1.000
  Land-388                 100.63       0.00       0.00       0.00     100.61       0.00     100.61        0.01     0.00   1.000
  Land-390                 100.63       0.00       0.00       0.00     100.61       0.00     100.61        0.01     0.00   1.000
  Land-391                 100.63       0.00       0.00       0.00     100.61       0.00     100.61        0.01     0.00   1.000
  Land-392                 100.63       0.00       0.00       0.00     100.61       0.00     100.61        0.01     0.00   1.000
  Land-394                 100.63       0.00       0.00       0.00     100.61       0.00     100.61        0.01     0.00   1.000
  Land-395                 100.63     100.61       0.00       0.00     201.19       0.00     201.19        0.02     0.01   1.000
  Land-396                 100.63       0.00       0.00       0.00     100.61       0.00     100.61        0.01     0.00   1.000
  Land-400                 100.63       0.00       0.00       0.00     100.61       0.00     100.61        0.01     0.00   1.000
  Land-405                 100.63       0.00       0.00       0.00     100.61       0.00     100.61        0.01     0.00   1.000
  Land-406                 100.63       0.00       0.00       0.00     100.61       0.00     100.61        0.01     0.00   1.000
  Land-407                 100.63       0.00       0.00       0.00     100.61       0.00     100.61        0.01     0.00   1.000
  Land-408                 100.63       0.00       0.00       0.00     100.61       0.00     100.61        0.01     0.00   1.000
  Land-409                 100.63       0.00       0.00       0.00     100.61       0.00     100.61        0.01     0.00   1.000
  Land-410                 100.63       0.00       0.00       0.00     100.61       0.00     100.61        0.01     0.00   1.000
  Land-411                 100.63       0.00       0.00       0.00     100.61       0.00     100.61        0.01     0.00   1.000
  Land-412                 100.63       0.00       0.00       0.00     100.61       0.00     100.61        0.01     0.00   1.000
  Land-4414                100.63       0.00       0.00       0.00     100.61       0.00     100.61        0.01     0.00   1.000
  Land-4415                100.63       0.00       0.00       0.00     100.61       0.00     100.61        0.01     0.00   1.000
  Land-4418                100.63       0.00       0.00       0.00     100.61       0.00     100.61        0.01     0.00   1.000
  Land-4419                100.63       0.00       0.00       0.00     100.61       0.00     100.61        0.01     0.00   1.000
  Land-4443                100.63       0.00       0.00       0.00     100.61       0.00     100.61        0.01     0.00   1.000
  Land-4452                100.63       0.00       0.00       0.00     100.61       0.00     100.61        0.01     0.00   1.000
  Land-4462                100.63       0.00       0.00       0.00     100.61       0.00     100.61        0.01     0.00   1.000
  Land-4464                100.63       0.00       0.00       0.00     100.61       0.00     100.61        0.01     0.00   1.000
  Land-4482                100.63       0.00       0.00       2.89       4.97      90.14      95.11        0.01     0.00   0.945
  Land-4484                100.63       0.00       0.00       0.00     100.61       0.00     100.61        0.01     0.00   1.000
  Land-4498                100.63       0.00       0.00       2.89       4.97      90.14      95.11        0.01     0.00   0.945
  Land-4499                100.63       0.00       0.00       0.00     100.61       0.00     100.61        0.01     0.00   1.000
  Land-4500                100.63       0.00       0.00       0.00     100.61       0.00     100.61        0.01     0.00   1.000
  Land-B21[2]-1            100.63       0.00       0.00       2.89       4.97      90.14      95.11        0.01     0.00   0.945
  Land-G-B3                100.63       0.00       0.00       2.59      14.94      81.21      96.15        0.02     0.01   0.955
  Land-G-B-X-3/1           100.63       0.00       0.00       3.04       0.00      94.00      94.00        0.02     0.01   0.934
  Land-Grass-1             100.63       0.00       0.00       2.89       4.98      88.57      93.55        0.03     0.01   0.930
  Land-Grass-2             100.63       0.00       0.00       2.89       4.98      90.14      95.12        0.01     0.00   0.945
  Land-Grass-3             100.63       0.00       0.00       2.89       4.98      89.39      94.36        0.02     0.01   0.938
  Land-near-               100.63       0.00       0.00       2.74       9.95      85.43      95.38        0.01     0.00   0.948
  Land-near-B[45]-10       100.63       0.00       0.00       0.00     100.61       0.00     100.61        0.01     0.00   1.000
  Land-near-B[45]-5        100.63       0.00       0.00       0.00     100.61       0.00     100.61        0.01     0.00   1.000
  Land-near-B[45]-8        100.63       0.00       0.00       0.00     100.61       0.00     100.61        0.01     0.00   1.000
  Land-near-B[45]-9        100.63       0.00       0.00       0.00     100.61       0.00     100.61        0.01     0.00   1.000
  Land-near-B[shop]-2      100.63       0.00       0.00       2.74       9.95      85.43      95.38        0.01     0.00   0.948
  Land-near-B1-1           100.63     100.61       0.00       0.00     201.19       0.00     201.19        0.02     0.01   1.000
  Land-near-B1-2           100.63       0.00       0.00       0.00     100.61       0.00     100.61        0.01     0.00   1.000
  Land-near-B1-22          100.63       0.00       0.00       0.00     100.61       0.00     100.61        0.01     0.00   1.000
  Land-near-B1-23          100.63       0.00       0.00       0.00     100.55       0.00     100.55        0.02     0.01   0.999
  Land-near-B1-3           100.63       0.00       0.00       0.00     100.61       0.00     100.61        0.01     0.00   1.000
  Land-near-B1-5           100.63       0.00       0.00       0.00     100.61       0.00     100.61        0.01     0.00   1.000
  Land-near-B1-6           100.63       0.00       0.00       0.00     100.61       0.00     100.61        0.01     0.00   1.000
  Land-near-B1-9           100.63     100.61       0.00       0.00     201.19       0.00     201.19        0.02     0.01   1.000
  Land-near-B2-1           100.63       0.00       0.00       0.00     100.55       0.00     100.55        0.02     0.01   0.999
  Land-near-B2-2           100.63       0.00       0.00       0.00     100.61       0.00     100.61        0.01     0.00   1.000
  Land-near-B2-3           100.63       0.00       0.00       0.00     100.61       0.00     100.61        0.01     0.00   1.000
  Land-near-B23-1          100.63       0.00       0.00       0.00     100.61       0.00     100.61        0.01     0.00   1.000
  Land-near-B23-2          100.63       0.00       0.00       0.00     100.61       0.00     100.61        0.01     0.00   1.000
  Land-near-B23-4          100.63       0.00       0.00       0.00     100.61       0.00     100.61        0.01     0.00   1.000
  Land-near-B2-4           100.63       0.00       0.00       0.00     100.61       0.00     100.61        0.01     0.00   1.000
  Land-near-B25-2          100.63       0.00       0.00       0.00     100.61       0.00     100.61        0.01     0.00   1.000
  Land-near-B26-1          100.63       0.00       0.00       0.00     100.61       0.00     100.61        0.01     0.00   1.000
  Land-near-B28-1          100.63       0.00       0.00       0.00     100.62       0.00     100.62        0.01     0.00   1.000
  Land-near-B28-3          100.63       0.00       0.00       0.00     100.62       0.00     100.62        0.01     0.00   1.000
  Land-near-B28-4          100.63       0.00       0.00       0.00     100.62       0.00     100.62        0.01     0.00   1.000
  Land-near-B29-2          100.63       0.00       0.00       0.00     100.62       0.00     100.62        0.01     0.00   1.000
  Land-near-B29-3          100.63       0.00       0.00       0.00     100.62       0.00     100.62        0.01     0.00   1.000
  Land-near-B29-4          100.63       0.00       0.00       0.00     100.62       0.00     100.62        0.01     0.00   1.000
  Land-near-B29-5          100.63       0.00       0.00       0.00     100.62       0.00     100.62        0.01     0.00   1.000
  Land-near-B31-1          100.63       0.00       0.00       0.00     100.61       0.00     100.61        0.01     0.00   1.000
  Land-near-B33-1          100.63       0.00       0.00       0.00     100.61       0.00     100.61        0.01     0.00   1.000
  Land-near-B3-6           100.63       0.00       0.00       2.74       9.95      85.43      95.38        0.01     0.00   0.948
  Land-near-B3-7           100.63       0.00       0.00       3.01       1.00      93.90      94.90        0.01     0.00   0.943
  Land-near-B41-1          100.63       0.00       0.00       0.00     100.61       0.00     100.61        0.01     0.00   1.000
  Land-near-B41-2          100.63       0.00       0.00       0.00     100.61       0.00     100.61        0.01     0.00   1.000
  Land-near-B4-2           100.63       0.00       0.00       0.00     100.61       0.00     100.61        0.01     0.00   1.000
  Land-near-B4-3           100.63       0.00       0.00       0.00     100.61       0.00     100.61        0.01     0.00   1.000
  Land-near-B44-1          100.63       0.00       0.00       0.00     100.61       0.00     100.61        0.01     0.00   1.000
  Land-near-B44-2          100.63       0.00       0.00       0.00     100.61       0.00     100.61        0.01     0.00   1.000
  Land-near-B44-8          100.63       0.00       0.00       0.00     100.61       0.00     100.61        0.01     0.00   1.000
  Land-near-B45[1]-1       100.63       0.00       0.00       1.52      50.00      47.63      97.63        0.01     0.00   0.970
  Land-near-B45[1]-2       100.63      33.55       0.00       2.43      26.64     101.64     128.27        0.04     0.01   0.956
  Land-near-B45[3]-1       100.63       0.00       0.00       0.00     100.61       0.00     100.61        0.01     0.00   1.000
  Land-near-B45[3]-2       100.63       0.00       0.00       0.00     100.61       0.00     100.61        0.01     0.00   1.000
  Land-near-B45[3]-3       100.63       0.00       0.00       0.00     100.61       0.00     100.61        0.01     0.00   1.000
  Land-near-B45[3]-4       100.63       0.00       0.00       0.00     100.61       0.00     100.61        0.01     0.00   1.000
  Land-near-B45[4]-1       100.63       0.00       0.00       0.00     100.61       0.00     100.61        0.01     0.00   1.000
  Land-near-B45[5]-1       100.63       0.00       0.00       0.00     100.61       0.00     100.61        0.01     0.00   1.000
  Land-near-B4-6           100.63       0.00       0.00       0.00     100.61       0.00     100.61        0.01     0.00   1.000
  Land-near-B46[2]-1       100.63     100.66       0.00       0.00     201.27       0.00     201.27        0.02     0.01   1.000
  Land-near-B46[2]-10      100.63       0.00       0.00       0.00     100.61       0.00     100.61        0.01     0.00   1.000
  Land-near-B46[2]-11      100.63       0.00       0.00       0.00     100.61       0.00     100.61        0.01     0.00   1.000
  Land-near-B46[2]-12      100.63       0.00       0.00       0.00     100.61       0.00     100.61        0.01     0.00   1.000
  Land-near-B46[2]-13      100.63       0.00       0.00       0.00     100.61       0.00     100.61        0.01     0.00   1.000
  Land-near-B46[2]-15      100.63     100.61       0.00       0.00     201.19       0.00     201.19        0.02     0.01   1.000
  Land-near-B46[2]-18      100.63       0.00       0.00       1.52      50.00      47.63      97.63        0.01     0.00   0.970
  Land-near-B46[2]-19      100.63       0.00       0.00       1.52      50.00      47.63      97.63        0.01     0.00   0.970
  Land-near-B46[2]-20      100.63       0.00       0.00       1.22      60.07      38.14      98.21        0.01     0.00   0.976
  Land-near-B46[2]-3       100.63       0.00       0.00       1.52      50.00      47.63      97.63        0.01     0.00   0.970
  Land-near-B46[2]-4       100.63       0.00       0.00       1.52      50.00      47.63      97.63        0.01     0.00   0.970
  Land-near-B46[2]-8       100.63       0.00       0.00       0.00     100.61       0.00     100.61        0.01     0.00   1.000
  Land-near-B46[2]-9       100.63       0.00       0.00       0.00     100.61       0.00     100.61        0.01     0.00   1.000
  Land-near-B4-7           100.63       0.00       0.00       0.00     100.61       0.00     100.61        0.01     0.00   1.000
  Land-near-B47-1          100.63       0.00       0.00       1.52      49.98      47.22      97.19        0.03     0.01   0.966
  Land-near-B47-3          100.63      50.30       0.00       1.22      90.23      58.07     148.30        0.03     0.01   0.983
  Land-near-B48[1]-3       100.63       0.00       0.00       2.43      19.93      75.79      95.72        0.02     0.01   0.951
  Land-near-B48[1]-5       100.63       0.00       0.00       1.52      50.01      47.70      97.70        0.01     0.00   0.971
  Land-near-B48[2]-1       100.63       0.00       0.00       0.61      80.28      19.09      99.37        0.02     0.01   0.988
  Land-near-B48[2]-2       100.63       0.00       0.00       0.61      80.30      19.13      99.43        0.01     0.00   0.988
  Land-near-B48[3]-1       100.63       0.00       0.00       2.74       9.95      85.62      95.57        0.01     0.00   0.950
  Land-near-B48[3]-2       100.63       0.00       0.00       0.00     100.62       0.00     100.62        0.01     0.00   1.000
  Land-near-B48[3]-3       100.63       0.00       0.00       1.98      34.96      62.24      97.19        0.01     0.00   0.966
  Land-near-B48[5]-1       100.63       0.00       0.00       2.74       9.95      85.62      95.57        0.01     0.00   0.950
  Land-near-B48[5]-2       100.63       0.00       0.00       2.74       9.95      85.62      95.57        0.01     0.00   0.950
  Land-near-B48[5]-3       100.63       0.00       0.00       2.74       9.95      85.62      95.57        0.01     0.00   0.950
  Land-near-B48[6]-1       100.63       0.00       0.00       2.74       9.95      85.62      95.57        0.01     0.00   0.950
  Land-near-B48[6]-3       100.63       0.00       0.00       2.74       9.95      85.16      95.11        0.02     0.01   0.945
  Land-near-B48[7]-1       100.63       0.00       0.00       2.43      19.93      76.15      96.09        0.01     0.00   0.955
  Land-near-B48[7]-2       100.63       0.00       0.00       2.43      19.93      76.15      96.09        0.01     0.00   0.955
  Land-near-B48[7]-3       100.63       0.00       0.00       2.74       9.95      85.62      95.57        0.01     0.00   0.950
  Land-near-B48[8]-1       100.63       0.00       0.00       2.43      19.93      76.00      95.93        0.01     0.00   0.953
  Land-near-B49[1]-1       100.63       0.00       0.00       2.74       9.95      84.76      94.71        0.02     0.01   0.941
  Land-near-B49[1]-2       100.63       0.00       0.00       2.13      29.92      65.74      95.66        0.03     0.01   0.951
  Land-near-B49[1]-3       100.63       0.00       0.00       2.43      19.93      75.48      95.41        0.02     0.01   0.948
  Land-near-B49[1]-4       100.63       0.00       0.00       1.82      39.79      56.81      96.60        0.02     0.01   0.960
  Land-near-B49[1]-5       100.63     193.21       0.00       1.52     146.57     143.96     290.52        0.03     0.01   0.989
  Land-near-B49[1]-6       100.63       0.00       0.00       2.43      19.93      76.00      95.93        0.01     0.00   0.953
  Land-near-B51-10         100.63       0.00       0.00       0.00     100.55       0.00     100.55        0.02     0.01   0.999
  Land-near-B51-11         100.63       0.00       0.00       0.00     100.61       0.00     100.61        0.01     0.00   1.000
  Land-near-B51-12         100.63       0.00       0.00       0.00     100.61       0.00     100.61        0.01     0.00   1.000
  Land-near-B51-13         100.63       0.00       0.00       0.00     100.61       0.00     100.61        0.01     0.00   1.000
  Land-near-B51-14         100.63       0.00       0.00       0.00     100.61       0.00     100.61        0.01     0.00   1.000
  Land-near-B51-16         100.63       0.00       0.00       0.00     100.61       0.00     100.61        0.01     0.00   1.000
  Land-near-B52[9]-1       100.63       0.00       0.00       0.00     100.61       0.00     100.61        0.01     0.00   1.000
  Land-near-B52[9]-11      100.63       0.00       0.00       0.00     100.61       0.00     100.61        0.01     0.00   1.000
  Land-near-B52[9]-12      100.63       0.00       0.00       0.30      90.44       9.57     100.01        0.01     0.00   0.994
  Land-near-B52[9]-2       100.63       0.00       0.00       0.00     100.61       0.00     100.61        0.01     0.00   1.000
  Land-near-B52[9]-3       100.63       0.00       0.00       0.00     100.66       0.00     100.66        0.01     0.00   1.000
  Land-near-B52[9]-4       100.63       0.00       0.00       0.00     100.66       0.00     100.66        0.01     0.00   1.000
  Land-near-B52[9]-5       100.63       0.00       0.00       0.00     100.66       0.00     100.66        0.01     0.00   1.000
  Land-near-B52[9]-6       100.63       0.00       0.00       0.00     100.66       0.00     100.66        0.01     0.00   1.000
  Land-near-B52[9]-7       100.63       0.00       0.00       0.00     100.66       0.00     100.66        0.01     0.00   1.000
  Land-near-B55[1]-2       100.63       0.00       0.00       0.00     100.61       0.00     100.61        0.01     0.00   1.000
  Land-near-B55[9]-1       100.63       0.00       0.00       0.00     100.61       0.00     100.61        0.01     0.00   1.000
  Land-near-B55[9]-10      100.63       0.00       0.00       0.00     100.61       0.00     100.61        0.01     0.00   1.000
  Land-near-B55[9]-9       100.63       0.00       0.00       0.00     100.61       0.00     100.61        0.01     0.00   1.000
  Land-near-B56-1          100.63       0.00       0.00       1.52      50.00      47.63      97.63        0.02     0.01   0.970
  Land-near-B56-2          100.63       0.00       0.00       1.52      50.00      47.65      97.65        0.02     0.01   0.970
  Land-near-B56-3          100.63       0.00       0.00       2.74       9.96      85.81      95.77        0.01     0.00   0.952
  Land-near-B6-1           100.63       0.00       0.00       2.89       4.97      90.14      95.11        0.01     0.00   0.945
  Land-near-B6-4           100.63       0.00       0.00       2.89       4.97      90.14      95.11        0.01     0.00   0.945
  Land-near-B6-5           100.63       0.00       0.00       2.89       4.97      90.14      95.11        0.01     0.00   0.945
  land-near-B7-1           100.63       0.00       0.00       0.00     100.61       0.00     100.61        0.01     0.00   1.000
  land-near-B7-2           100.63       0.00       0.00       0.00      99.48       0.00      99.48        0.01     0.00   0.989
  land-near-B7-3           100.63       0.00       0.00       0.91      70.17      28.64      98.81        0.01     0.00   0.982
  Land-near-B8-1           100.63       0.00       0.00       0.00     100.61       0.00     100.61        0.01     0.00   1.000
  Land-near-B8-2           100.63       0.00       0.00       0.00     100.61       0.00     100.61        0.01     0.00   1.000
  Land-near-B9-1           100.63     192.19       0.00       0.00     292.68       0.00     292.68        0.03     0.01   1.000
  Land-near-B9-12          100.63       0.00       0.00       2.74       9.95      85.43      95.38        0.01     0.00   0.948
  Land-near-B9-13          100.63       0.00       0.00       2.74       9.95      85.43      95.38        0.01     0.00   0.948
  Land-near-B9-3           100.63      96.49       0.00       2.43      39.22     152.97     192.19        0.02     0.01   0.975
  Land-near-B9-5           100.63       0.00       0.00       0.00     100.61       0.00     100.61        0.01     0.00   1.000
  Land-near-B9-6           100.63       0.00       0.00       2.13      29.93      66.56      96.49        0.01     0.00   0.959
  Land-near-B9-8           100.63       0.00       0.00       2.74       9.95      85.43      95.38        0.01     0.00   0.948
  Land-near-B9-9           100.63       0.00       0.00       2.74       9.95      85.43      95.38        0.01     0.00   0.948
  Land-near-Parking-X-2-1     100.63       0.00       0.00       0.61      80.33      19.18      99.51        0.01     0.00   0.989
  Land-near-Parking-X-2-2     100.63       0.00       0.00       2.43      19.93      76.15      96.09        0.01     0.00   0.955
  Land-near-Parking-X-2-3     100.63       0.00       0.00       2.43      19.93      76.15      96.09        0.01     0.00   0.955
  Land-near-sump1-1        100.63       0.00       0.00       1.82      39.95      57.10      97.05        0.01     0.00   0.964
  Land-near-sump1-2        100.63       0.00       0.00       2.74       9.94      85.43      95.37        0.01     0.00   0.948
  Land-near-sump1-3        100.63       0.00       0.00       0.00      99.60       0.00      99.60        0.01     0.00   0.990
  Land-near-sump2-1        100.63       0.00       0.00       1.22      60.08      38.19      98.27        0.01     0.00   0.977
  Land-near-sump2-2        100.63       0.00       0.00       0.91      70.44       0.00      70.44        0.01     0.00   0.700
  Land-sport-near-B52      100.63       0.00       0.00       2.43      20.00      75.66      95.66        0.01     0.00   0.951
  Parking1-1               100.63       0.00       0.00       0.00     100.35       0.00     100.35        0.05     0.02   0.997
  Parking1-2               100.63       0.00       0.00       0.00     100.42       0.00     100.42        0.04     0.01   0.998
  Parking-57/1             100.63       0.00       0.00       0.00     100.12       0.00     100.12        0.11     0.04   0.995
  Parking-57/2             100.63       0.00       0.00       0.00     100.34       0.00     100.34        0.07     0.03   0.997
  Parking-57/3             100.63       0.00       0.00       0.00     100.45       0.00     100.45        0.05     0.02   0.998
  Parking-57/4             100.63       0.00       0.00       0.00     100.64       0.00     100.64        0.03     0.01   1.000
  Parking-B42[3]-1         100.63       0.00       0.00       0.00     100.42       0.00     100.42        0.05     0.02   0.998
  Parking-B42[3]-2         100.63       0.00       0.00       0.00     100.53       0.00     100.53        0.03     0.01   0.999
  Parking-B42[3]-3         100.63       0.00       0.00       0.00     100.57       0.00     100.57        0.02     0.01   0.999
  Parking-B42[4]-1         100.63       0.00       0.00       0.00     100.57       0.00     100.57        0.02     0.01   0.999
  Parking-B42[4]-2         100.63       0.00       0.00       0.00     100.62       0.00     100.62        0.01     0.00   1.000
  Parking-B42[4]-3         100.63       0.00       0.00       0.00     100.57       0.00     100.57        0.02     0.01   0.999
  Parking-B42[4]-4         100.63       0.00       0.00       0.00     100.57       0.00     100.57        0.02     0.01   0.999
  Parking-B42-1            100.63       0.00       0.00       0.00     100.57       0.00     100.57        0.02     0.01   0.999
  Parking-B42-2            100.63       0.00       0.00       0.00     100.57       0.00     100.57        0.02     0.01   0.999
  Parking-B42-3            100.63       0.00       0.00       0.00     100.57       0.00     100.57        0.02     0.01   0.999
  Parking-B42-4            100.63       0.00       0.00       0.00     100.62       0.00     100.62        0.01     0.00   1.000
  Parking-near-B3-1        100.63       0.00       0.00       0.00     100.61       0.00     100.61        0.01     0.00   1.000
  Parking-near-B3-2        100.63       0.00       0.00       0.00     100.55       0.00     100.55        0.02     0.01   0.999
  Parking-near-B3-3        100.63       0.00       0.00       0.00     100.55       0.00     100.55        0.02     0.01   0.999
  Parking-near-B3-4        100.63       0.00       0.00       0.00     100.55       0.00     100.55        0.02     0.01   0.999
  Parking-near-B51/1       100.63       0.00       0.00       0.00     100.61       0.00     100.61        0.01     0.00   1.000
  Parking-near-B51/2       100.63       0.00       0.00       0.00     100.49       0.00     100.49        0.03     0.01   0.999
  Parking-near-B51/3       100.63       0.00       0.00       0.00     100.61       0.00     100.61        0.01     0.00   1.000
  Parking-near-B51/4       100.63       0.00       0.00       0.00     100.61       0.00     100.61        0.01     0.00   1.000
  Parking-near-B51/5       100.63       0.00       0.00       0.00     100.55       0.00     100.55        0.02     0.01   0.999
  Parking-near-B51/6       100.63       0.00       0.00       0.00     100.61       0.00     100.61        0.01     0.00   1.000
  Parking-near-B9-1        100.63       0.00       0.00       0.00     100.50       0.00     100.50        0.04     0.01   0.999
  Parking-near-B9-2        100.63       0.00       0.00       0.00     100.50       0.00     100.50        0.04     0.01   0.999
  Parking-X-1              100.63       0.00       0.00       0.00     100.66       0.00     100.66        0.01     0.00   1.000
  Parking-X-2              100.63       0.00       0.00       0.00     100.66       0.00     100.66        0.01     0.00   1.000
  Parking-X-4/1            100.63       0.00       0.00       0.00     100.66       0.00     100.66        0.01     0.00   1.000
  Parking-X-4/2            100.63       0.00       0.00       0.00     100.66       0.00     100.66        0.01     0.00   1.000
  Parking-X-5              100.63       0.00       0.00       0.00     100.66       0.00     100.66        0.01     0.00   1.000
  Parking-X-8/1            100.63       0.00       0.00       0.00     100.66       0.00     100.66        0.01     0.00   1.000
  Parking-X-8/2            100.63       0.00       0.00       0.00     100.66       0.00     100.66        0.01     0.00   1.000
  Road-516                 100.63       0.00       0.00       0.00     100.61       0.00     100.61        0.01     0.00   1.000
  Road-517                 100.63       0.00       0.00       0.00     100.63       0.00     100.63        0.01     0.00   1.000
  Road-518                 100.63       0.00       0.00       0.00     100.63       0.00     100.63        0.01     0.00   1.000
  Road-520                 100.63       0.00       0.00       0.00     100.63       0.00     100.63        0.01     0.00   1.000
  Road-522                 100.63       0.00       0.00       0.00     100.63       0.00     100.63        0.01     0.00   1.000
  Road-524                 100.63       0.00       0.00       0.00     100.63       0.00     100.63        0.01     0.00   1.000
  Road-528                 100.63       0.00       0.00       0.00     100.63       0.00     100.63        0.01     0.00   1.000
  Road-529                 100.63       0.00       0.00       0.00     100.61       0.00     100.61        0.01     0.00   1.000
  Road-536                 100.63       0.00       0.00       0.00     100.63       0.00     100.63        0.01     0.00   1.000
  Road-539                 100.63       0.00       0.00       0.00     100.63       0.00     100.63        0.01     0.00   1.000
  Road-540                 100.63       0.00       0.00       0.00     100.61       0.00     100.61        0.01     0.00   1.000
  Road-541                 100.63      50.30       0.00       0.00     150.90       0.00     150.90        0.03     0.01   1.000
  Road-544                 100.63       0.00       0.00       0.00     100.63       0.00     100.63        0.01     0.00   1.000
  Road-545                 100.63       0.00       0.00       0.00     100.61       0.00     100.61        0.01     0.00   1.000
  Road-546                 100.63       0.00       0.00       0.00     100.61       0.00     100.61        0.01     0.00   1.000
  Road-547                 100.63       0.00       0.00       0.00     100.61       0.00     100.61        0.01     0.00   1.000
  Road-548                 100.63     301.63       0.00       0.00     402.14       0.00     402.14        0.04     0.01   1.000
  Road-553                 100.63       0.00       0.00       0.00     100.61       0.00     100.61        0.01     0.00   1.000
  Road-554                 100.63       0.00       0.00       0.00     100.61       0.00     100.61        0.01     0.00   1.000
  Road-599                 100.63       0.00       0.00       0.00     100.61       0.00     100.61        0.01     0.00   1.000
  Road-602                 100.63       0.00       0.00       0.00     100.61       0.00     100.61        0.01     0.00   1.000
  Road-672                 100.63       0.00       0.00       0.00     100.61       0.00     100.61        0.01     0.00   1.000
  Road-677                 100.63       0.00       0.00       2.74       9.95      85.43      95.38        0.01     0.00   0.948
  Road-749                 100.63       0.00       0.00       0.00     100.62       0.00     100.62        0.01     0.00   1.000
  Road-750                 100.63       0.00       0.00       0.00     100.62       0.00     100.62        0.01     0.00   1.000
  Road-751                 100.63       0.00       0.00       0.00     100.62       0.00     100.62        0.01     0.00   1.000
  Road-752                 100.63       0.00       0.00       0.00     100.62       0.00     100.62        0.01     0.00   1.000
  Road-754                 100.63       0.00       0.00       0.00     100.66       0.00     100.66        0.01     0.00   1.000
  Road-786                 100.63       0.00       0.00       0.00     100.61       0.00     100.61        0.01     0.00   1.000
  Road-863                 100.63       0.00       0.00       0.00     100.61       0.00     100.61        0.01     0.00   1.000
  Road-864                 100.63       0.00       0.00       0.00     100.61       0.00     100.61        0.01     0.00   1.000
  Road-865                 100.63       0.00       0.00       0.00     100.61       0.00     100.61        0.01     0.00   1.000
  Road-866                 100.63       0.00       0.00       0.00     100.61       0.00     100.61        0.01     0.00   1.000
  Road-871                 100.63       0.00       0.00       0.00     100.61       0.00     100.61        0.01     0.00   1.000
  Road-872                 100.63       0.00       0.00       0.00     100.61       0.00     100.61        0.01     0.00   1.000
  Road-874                 100.63       0.00       0.00       0.00     100.61       0.00     100.61        0.01     0.00   1.000
  Road-876                 100.63       0.00       0.00       2.74       9.95      85.43      95.38        0.01     0.00   0.948
  Road-877                 100.63       0.00       0.00       2.74       9.95      85.43      95.38        0.01     0.00   0.948
  Road-878                 100.63       0.00       0.00       2.74       9.95      85.43      95.38        0.01     0.00   0.948
  Road-879                 100.63       0.00       0.00       2.74       9.95      85.43      95.38        0.01     0.00   0.948
  Road-880                 100.63       0.00       0.00       2.74       9.95      85.43      95.38        0.01     0.00   0.948
  Road-913                 100.63       0.00       0.00       0.00     100.61       0.00     100.61        0.01     0.00   1.000
  Road-915                 100.63       0.00       0.00       0.00     100.61       0.00     100.61        0.01     0.00   1.000
  Road-916                 100.63       0.00       0.00       0.00     100.61       0.00     100.61        0.01     0.00   1.000
  Road-919                 100.63       0.00       0.00       0.00     100.61       0.00     100.61        0.01     0.00   1.000
  Road-924                 100.63     201.10       0.00       0.00     301.63       0.00     301.63        0.03     0.01   1.000
  Road-925                 100.63     148.30       0.00       0.00     248.75       0.00     248.75        0.05     0.02   0.999
  Road-926                 100.63     799.41       0.00       0.00     899.86       0.00     899.86        0.09     0.03   1.000
  Road-Concrete-5-1        100.63       0.00       0.00       0.00     100.64       0.00     100.64        0.01     0.00   1.000
  Road-Concrete-5-2        100.63       0.00       0.00       0.00     100.64       0.00     100.64        0.01     0.00   1.000
  Road-door1-0             100.63      95.93       0.00       0.00     196.57       0.00     196.57        0.02     0.01   1.000
  Road-door1-10            100.63       0.00       0.00       0.00     100.63       0.00     100.63        0.01     0.00   1.000
  Road-door1-13            100.63       0.00       0.00       0.00     100.63       0.00     100.63        0.01     0.00   1.000
  Road-door1-23-(house)     100.63       0.00       0.00       0.00     100.63       0.00     100.63        0.01     0.00   1.000
  Road-door1-56            100.63       0.00       0.00       0.00     100.63       0.00     100.63        0.01     0.00   1.000
  Road-door3-1             100.63       0.00       0.00       0.00     100.63       0.00     100.63        0.01     0.00   1.000
  Road-door3-10            100.63       0.00       0.00       0.00     100.63       0.00     100.63        0.01     0.00   1.000
  Road-door3-13            100.63       0.00       0.00       0.00     100.63       0.00     100.63        0.01     0.00   1.000
  Road-door3-14            100.63       0.00       0.00       0.00     100.63       0.00     100.63        0.01     0.00   1.000
  Road-door3-2             100.63       0.00       0.00       0.00     100.63       0.00     100.63        0.01     0.00   1.000
  Road-door3-3             100.63       0.00       0.00       0.00     100.66       0.00     100.66        0.01     0.00   1.000
  Road-door3-4             100.63       0.00       0.00       0.00     100.63       0.00     100.63        0.01     0.00   1.000
  Road-door3-5             100.63       0.00       0.00       0.00     100.63       0.00     100.63        0.01     0.00   1.000
  Road-door4-1             100.63       0.00       0.00       0.00     100.61       0.00     100.61        0.01     0.00   1.000
  Road-front-B1-1          100.63       0.00       0.00       0.00     100.65       0.00     100.65        0.01     0.00   1.000
  Road-front-B1-10         100.63       0.00       0.00       0.00     100.61       0.00     100.61        0.01     0.00   1.000
  Road-front-B1-11         100.63       0.00       0.00       0.00     100.61       0.00     100.61        0.01     0.00   1.000
  Road-front-B1-12         100.63       0.00       0.00       0.00     100.61       0.00     100.61        0.01     0.00   1.000
  Road-front-B1-13         100.63       0.00       0.00       0.00     100.61       0.00     100.61        0.01     0.00   1.000
  Road-front-B1-14         100.63       0.00       0.00       0.00     100.61       0.00     100.61        0.01     0.00   1.000
  Road-front-B1-16         100.63       0.00       0.00       0.00     100.61       0.00     100.61        0.01     0.00   1.000
  Road-front-B1-17         100.63       0.00       0.00       0.00     100.61       0.00     100.61        0.01     0.00   1.000
  Road-front-B1-18         100.63       0.00       0.00       0.00     100.61       0.00     100.61        0.01     0.00   1.000
  Road-front-B1-19         100.63       0.00       0.00       0.00     100.61       0.00     100.61        0.01     0.00   1.000
  Road-front-B1-2          100.63       0.00       0.00       0.00     100.61       0.00     100.61        0.01     0.00   1.000
  Road-front-B1-20         100.63       0.00       0.00       0.00     100.61       0.00     100.61        0.01     0.00   1.000
  Road-front-B1-22         100.63       0.00       0.00       0.00     100.61       0.00     100.61        0.01     0.00   1.000
  Road-front-B1-23         100.63       0.00       0.00       0.00     100.61       0.00     100.61        0.01     0.00   1.000
  Road-front-B1-24         100.63       0.00       0.00       0.00     100.61       0.00     100.61        0.01     0.00   1.000
  Road-front-B1-25         100.63       0.00       0.00       0.00     100.61       0.00     100.61        0.01     0.00   1.000
  Road-front-B1-26         100.63       0.00       0.00       0.00     100.61       0.00     100.61        0.01     0.00   1.000
  Road-front-B1-3          100.63     200.21       0.00       0.00     300.78       0.00     300.78        0.03     0.01   1.000
  Road-front-B1-4          100.63     501.96       0.00       0.00     602.48       0.00     602.48        0.06     0.02   1.000
  Road-front-B1-5          100.63       0.00       0.00       0.00     100.61       0.00     100.61        0.01     0.00   1.000
  Road-front-B1-6          100.63       0.00       0.00       0.00     100.61       0.00     100.61        0.01     0.00   1.000
  Road-front-B1-7          100.63       0.00       0.00       0.00     100.61       0.00     100.61        0.01     0.00   1.000
  Road-front-B1-9          100.63       0.00       0.00       0.00     100.61       0.00     100.61        0.01     0.00   1.000
  Road-link(down)-top9     100.63       0.00       0.00       0.00     100.61       0.00     100.61        0.01     0.00   1.000
  Road-near-B2-1           100.63       0.00       0.00       0.00     100.61       0.00     100.61        0.01     0.00   1.000
  Road-near-B2-2           100.63       0.00       0.00       0.00     100.61       0.00     100.61        0.01     0.00   1.000
  Road-near-B2-3           100.63       0.00       0.00       0.00     100.61       0.00     100.61        0.01     0.00   1.000
  Road-near-B2-4           100.63       0.00       0.00       0.00     100.61       0.00     100.61        0.01     0.00   1.000
  Road-near-B2-6           100.63       0.00       0.00       0.00     100.61       0.00     100.61        0.01     0.00   1.000
  Roof-202                 100.63       0.00       0.00       0.00     100.66       0.00     100.66        0.01     0.00   1.000
  Roof-207                 100.63       0.00       0.00       0.00     100.66       0.00     100.66        0.01     0.00   1.000
  Roof-241                 100.63       0.00       0.00       0.00     100.66       0.00     100.66        0.01     0.00   1.000
  Roof-25                  100.63       0.00       0.00       0.00     100.66       0.00     100.66        0.01     0.00   1.000
  Roof-278                 100.63       0.00       0.00       0.00     100.66       0.00     100.66        0.01     0.00   1.000
  Roof-B1/1                100.63       0.00       0.00       0.00     100.62       0.00     100.62        0.05     0.02   1.000
  Roof-B1/2                100.63       0.00       0.00       0.00     100.62       0.00     100.62        0.05     0.02   1.000
  Roof-B1/3                100.63       0.00       0.00       0.00     100.64       0.00     100.64        0.03     0.01   1.000
  Roof-B1/4                100.63       0.00       0.00       0.00     100.64       0.00     100.64        0.03     0.01   1.000
  Roof-B1/5                100.63       0.00       0.00       0.00     100.63       0.00     100.63        0.04     0.02   1.000
  Roof-B1/6                100.63       0.00       0.00       0.00     100.63       0.00     100.63        0.04     0.02   1.000
  Roof-B1/7                100.63       0.00       0.00       0.00     100.55       0.00     100.55        0.02     0.01   0.999
  Roof-B1/8                100.63       0.00       0.00       0.00     100.58       0.00     100.58        0.02     0.01   1.000
  Roof-B1/9                100.63       0.00       0.00       0.00     100.62       0.00     100.62        0.01     0.00   1.000
  Roof-B10/1               100.63       0.00       0.00       0.00     100.66       0.00     100.66        0.01     0.00   1.000
  Roof-B10/2               100.63       0.00       0.00       0.00     100.66       0.00     100.66        0.01     0.00   1.000
  Roof-B10/3               100.63       0.00       0.00       0.00     100.66       0.00     100.66        0.01     0.00   1.000
  Roof-B10/4               100.63       0.00       0.00       0.00     100.66       0.00     100.66        0.01     0.00   1.000
  Roof-B10/5               100.63       0.00       0.00       0.00     100.66       0.00     100.66        0.01     0.00   1.000
  Roof-B10/6               100.63       0.00       0.00       0.00     100.66       0.00     100.66        0.01     0.00   1.000
  Roof-B10/7               100.63       0.00       0.00       0.00     100.66       0.00     100.66        0.01     0.00   1.000
  Roof-B10/8               100.63       0.00       0.00       0.00     100.66       0.00     100.66        0.01     0.00   1.000
  Roof-B11/1               100.63       0.00       0.00       0.00     100.66       0.00     100.66        0.01     0.00   1.000
  Roof-B11/4               100.63       0.00       0.00       0.00     100.66       0.00     100.66        0.01     0.00   1.000
  Roof-B11/5               100.63       0.00       0.00       0.00     100.66       0.00     100.66        0.01     0.00   1.000
  Roof-B11/7               100.63       0.00       0.00       0.00     100.66       0.00     100.66        0.01     0.00   1.000
  Roof-B12/1               100.63       0.00       0.00       0.00     100.64       0.00     100.64        0.02     0.01   1.000
  Roof-B12/2               100.63       0.00       0.00       0.00     100.64       0.00     100.64        0.02     0.01   1.000
  Roof-B12/3               100.63       0.00       0.00       0.00     100.64       0.00     100.64        0.02     0.01   1.000
  Roof-B12/4               100.63       0.00       0.00       0.00     100.64       0.00     100.64        0.02     0.01   1.000
  Roof-B12/5               100.63       0.00       0.00       0.00     100.64       0.00     100.64        0.02     0.01   1.000
  Roof-B12/6               100.63       0.00       0.00       0.00     100.66       0.00     100.66        0.01     0.00   1.000
  Roof-B12/7               100.63       0.00       0.00       0.00     100.66       0.00     100.66        0.01     0.00   1.000
  Roof-B12/8               100.63       0.00       0.00       0.00     100.64       0.00     100.64        0.02     0.01   1.000
  Roof-B13/1               100.63       0.00       0.00       0.00     100.64       0.00     100.64        0.02     0.01   1.000
  Roof-B13/2               100.63       0.00       0.00       0.00     100.64       0.00     100.64        0.02     0.01   1.000
  Roof-B13/3               100.63       0.00       0.00       0.00     100.64       0.00     100.64        0.02     0.01   1.000
  Roof-B13/4               100.63       0.00       0.00       0.00     100.64       0.00     100.64        0.02     0.01   1.000
  Roof-B14/1               100.63       0.00       0.00       0.00     100.66       0.00     100.66        0.01     0.00   1.000
  Roof-B14/2               100.63       0.00       0.00       0.00     100.66       0.00     100.66        0.01     0.00   1.000
  Roof-B14/3               100.63       0.00       0.00       0.00     100.66       0.00     100.66        0.01     0.00   1.000
  Roof-B14/4               100.63       0.00       0.00       0.00     100.66       0.00     100.66        0.01     0.00   1.000
  Roof-B14/5               100.63       0.00       0.00       0.00     100.66       0.00     100.66        0.01     0.00   1.000
  Roof-B14/6               100.63       0.00       0.00       0.00     100.66       0.00     100.66        0.01     0.00   1.000
  Roof-B15/1               100.63       0.00       0.00       0.00     100.64       0.00     100.64        0.02     0.01   1.000
  Roof-B15/2               100.63       0.00       0.00       0.00     100.64       0.00     100.64        0.02     0.01   1.000
  Roof-B16/1               100.63       0.00       0.00       0.00     100.66       0.00     100.66        0.01     0.00   1.000
  Roof-B16/2               100.63       0.00       0.00       0.00     100.66       0.00     100.66        0.01     0.00   1.000
  Roof-B16/3               100.63       0.00       0.00       0.00     100.66       0.00     100.66        0.01     0.00   1.000
  Roof-B16/4               100.63       0.00       0.00       0.00     100.66       0.00     100.66        0.01     0.00   1.000
  Roof-B18/1               100.63       0.00       0.00       0.00     100.66       0.00     100.66        0.01     0.00   1.000
  Roof-B18/2               100.63       0.00       0.00       0.00     100.66       0.00     100.66        0.01     0.00   1.000
  Roof-B18/3               100.63       0.00       0.00       0.00     100.66       0.00     100.66        0.01     0.00   1.000
  Roof-B18/4               100.63       0.00       0.00       0.00     100.66       0.00     100.66        0.01     0.00   1.000
  Roof-B18/5               100.63       0.00       0.00       0.00     100.66       0.00     100.66        0.01     0.00   1.000
  Roof-B19/1               100.63       0.00       0.00       0.00     100.49       0.00     100.49        0.03     0.01   0.999
  Roof-B19/2               100.63       0.00       0.00       0.00     100.61       0.00     100.61        0.01     0.00   1.000
  Roof-B19/3               100.63       0.00       0.00       0.00     100.55       0.00     100.55        0.02     0.01   0.999
  Roof-B20/1               100.63       0.00       0.00       0.00     100.66       0.00     100.66        0.01     0.00   1.000
  Roof-B20/2               100.63       0.00       0.00       0.00     100.64       0.00     100.64        0.02     0.01   1.000
  Roof-B20/3               100.63       0.00       0.00       0.00     100.66       0.00     100.66        0.01     0.00   1.000
  Roof-B20/4               100.63       0.00       0.00       0.00     100.64       0.00     100.64        0.02     0.01   1.000
  Roof-B20/5               100.63       0.00       0.00       0.00     100.66       0.00     100.66        0.01     0.00   1.000
  Roof-B20/6               100.63       0.00       0.00       0.00     100.66       0.00     100.66        0.01     0.00   1.000
  Roof-B20/7               100.63       0.00       0.00       0.00     100.54       0.00     100.54        0.03     0.01   0.999
  Roof-B20/8               100.63       0.00       0.00       0.00     100.58       0.00     100.58        0.02     0.01   1.000
  Roof-B20/9               100.63       0.00       0.00       0.00     100.62       0.00     100.62        0.01     0.00   1.000
  Roof-B2-1                100.63       0.00       0.00       0.00     100.64       0.00     100.64        0.02     0.01   1.000
  Roof-B21/1               100.63       0.00       0.00       0.00     100.64       0.00     100.64        0.02     0.01   1.000
  Roof-B21/2               100.63       0.00       0.00       0.00     100.64       0.00     100.64        0.03     0.01   1.000
  Roof-B21/3               100.63       0.00       0.00       0.00     100.64       0.00     100.64        0.02     0.01   1.000
  Roof-B2-10               100.63       0.00       0.00       0.00     100.63       0.00     100.63        0.02     0.01   1.000
  Roof-B2-11               100.63       0.00       0.00       0.00     100.63       0.00     100.63        0.02     0.01   1.000
  Roof-B2-12               100.63       0.00       0.00       0.00     100.63       0.00     100.63        0.02     0.01   1.000
  Roof-B2-13               100.63       0.00       0.00       0.00     100.64       0.00     100.64        0.01     0.00   1.000
  Roof-B2-2                100.63       0.00       0.00       0.00     100.63       0.00     100.63        0.02     0.01   1.000
  Roof-B2-3                100.63       0.00       0.00       0.00     100.63       0.00     100.63        0.02     0.01   1.000
  Roof-B23/1               100.63       0.00       0.00       0.00     100.66       0.00     100.66        0.01     0.00   1.000
  Roof-B23/2               100.63       0.00       0.00       0.00     100.66       0.00     100.66        0.01     0.00   1.000
  Roof-B24/1               100.63       0.00       0.00       0.00     100.64       0.00     100.64        0.02     0.01   1.000
  Roof-B24/2               100.63       0.00       0.00       0.00     100.64       0.00     100.64        0.02     0.01   1.000
  Roof-B24/3               100.63       0.00       0.00       0.00     100.64       0.00     100.64        0.02     0.01   1.000
  Roof-B24/4               100.63       0.00       0.00       0.00     100.64       0.00     100.64        0.02     0.01   1.000
  Roof-B-25                100.63       0.00       0.00       0.00     100.63       0.00     100.63        0.02     0.01   1.000
  Roof-B2-5                100.63       0.00       0.00       0.00     100.64       0.00     100.64        0.01     0.00   1.000
  Roof-B2-6                100.63       0.00       0.00       0.00     100.64       0.00     100.64        0.01     0.00   1.000
  Roof-B26-1               100.63       0.00       0.00       0.00     100.66       0.00     100.66        0.01     0.00   1.000
  Roof-B26-2               100.63       0.00       0.00       0.00     100.66       0.00     100.66        0.01     0.00   1.000
  Roof-B2-7                100.63       0.00       0.00       0.00     100.63       0.00     100.63        0.02     0.01   1.000
  Roof-B27-1               100.63       0.00       0.00       0.00     100.66       0.00     100.66        0.01     0.00   1.000
  Roof-B27-3               100.63       0.00       0.00       0.00     100.66       0.00     100.66        0.01     0.00   1.000
  Roof-B2-8                100.63       0.00       0.00       0.00     100.63       0.00     100.63        0.02     0.01   1.000
  Roof-B28-1               100.63       0.00       0.00       0.00     100.64       0.00     100.64        0.02     0.01   1.000
  Roof-B28-2               100.63       0.00       0.00       0.00     100.66       0.00     100.66        0.01     0.00   1.000
  Roof-B2-9                100.63       0.00       0.00       0.00     100.63       0.00     100.63        0.02     0.01   1.000
  Roof-B29-1               100.63       0.00       0.00       0.00     100.64       0.00     100.64        0.02     0.01   1.000
  Roof-B29-2               100.63       0.00       0.00       0.00     100.64       0.00     100.64        0.02     0.01   1.000
  Roof-B3/1                100.63       0.00       0.00       0.00     100.66       0.00     100.66        0.01     0.00   1.000
  Roof-B3/2                100.63       0.00       0.00       0.00     100.66       0.00     100.66        0.01     0.00   1.000
  Roof-B3/3                100.63       0.00       0.00       0.00     100.66       0.00     100.66        0.01     0.00   1.000
  Roof-B3/4                100.63       0.00       0.00       0.00     100.66       0.00     100.66        0.01     0.00   1.000
  Roof-B3/5                100.63       0.00       0.00       0.00     100.66       0.00     100.66        0.01     0.00   1.000
  Roof-B3/6                100.63       0.00       0.00       0.00     100.66       0.00     100.66        0.01     0.00   1.000
  Roof-B37/1               100.63       0.00       0.00       0.00     100.66       0.00     100.66        0.01     0.00   1.000
  Roof-B37/2               100.63       0.00       0.00       0.00     100.66       0.00     100.66        0.01     0.00   1.000
  Roof-B37/3               100.63       0.00       0.00       0.00     100.64       0.00     100.64        0.02     0.01   1.000
  Roof-B4/1                100.63       0.00       0.00       0.00     100.61       0.00     100.61        0.01     0.00   1.000
  Roof-B4/2                100.63       0.00       0.00       0.00     100.63       0.00     100.63        0.03     0.01   1.000
  Roof-B4/3                100.63       0.00       0.00       0.00     100.64       0.00     100.64        0.02     0.01   1.000
  Roof-B4/4                100.63       0.00       0.00       0.00     100.64       0.00     100.64        0.02     0.01   1.000
  Roof-B4/5                100.63       0.00       0.00       0.00     100.64       0.00     100.64        0.02     0.01   1.000
  Roof-B4/6                100.63       0.00       0.00       0.00     100.64       0.00     100.64        0.02     0.01   1.000
  Roof-B4/7                100.63       0.00       0.00       0.00     100.64       0.00     100.64        0.02     0.01   1.000
  Roof-B44-1               100.63       0.00       0.00       0.00     100.66       0.00     100.66        0.01     0.00   1.000
  Roof-B44-2               100.63       0.00       0.00       0.00     100.66       0.00     100.66        0.01     0.00   1.000
  Roof-B45[1]-1            100.63       0.00       0.00       0.00     100.64       0.00     100.64        0.03     0.01   1.000
  Roof-B45[1]-2            100.63       0.00       0.00       0.00     100.66       0.00     100.66        0.01     0.00   1.000
  Roof-B45[5]/1            100.63       0.00       0.00       0.00     100.66       0.00     100.66        0.01     0.00   1.000
  Roof-B45[5]/2            100.63       0.00       0.00       0.00     100.66       0.00     100.66        0.01     0.00   1.000
  Roof-B45[5]/3            100.63       0.00       0.00       0.00     100.66       0.00     100.66        0.01     0.00   1.000
  Roof-B45[5]/4            100.63       0.00       0.00       0.00     100.66       0.00     100.66        0.01     0.00   1.000
  Roof-B46[2]              100.63       0.00       0.00       0.00     100.66       0.00     100.66        0.01     0.00   1.000
  Roof-B46[2]-1            100.63       0.00       0.00       0.00     100.66       0.00     100.66        0.01     0.00   1.000
  Roof-B46[2]-2            100.63       0.00       0.00       0.00     100.66       0.00     100.66        0.01     0.00   1.000
  Roof-B46[2]-3            100.63       0.00       0.00       0.00     100.66       0.00     100.66        0.01     0.00   1.000
  Roof-B47-1               100.63       0.00       0.00       0.00     100.55       0.00     100.55        0.02     0.01   0.999
  Roof-B47-2               100.63       0.00       0.00       0.00     100.61       0.00     100.61        0.01     0.00   1.000
  Roof-B48[1]/1            100.63       0.00       0.00       0.00     100.66       0.00     100.66        0.01     0.00   1.000
  Roof-B48[1]-2            100.63       0.00       0.00       0.00     100.62       0.00     100.62        0.01     0.00   1.000
  Roof-B-48[2]             100.63       0.00       0.00       0.00     100.64       0.00     100.64        0.02     0.01   1.000
  Roof-B-48[3]             100.63       0.00       0.00       0.00     100.66       0.00     100.66        0.01     0.00   1.000
  Roof-B48[5]              100.63       0.00       0.00       0.00     100.66       0.00     100.66        0.01     0.00   1.000
  Roof-B48[6]              100.63       0.00       0.00       0.00     100.64       0.00     100.64        0.02     0.01   1.000
  Roof-B48[7]              100.63       0.00       0.00       0.00     100.66       0.00     100.66        0.01     0.00   1.000
  Roof-B-48[9]             100.63       0.00       0.00       0.00     100.66       0.00     100.66        0.01     0.00   1.000
  Roof-B49[1]/1            100.63       0.00       0.00       0.00     100.66       0.00     100.66        0.01     0.00   1.000
  Roof-B49[1]/2            100.63       0.00       0.00       0.00     100.66       0.00     100.66        0.01     0.00   1.000
  Roof-B49[1]/3            100.63       0.00       0.00       0.00     100.64       0.00     100.64        0.02     0.01   1.000
  Roof-B49[1]/4            100.63       0.00       0.00       0.00     100.66       0.00     100.66        0.01     0.00   1.000
  Roof-B49[1]/5            100.63       0.00       0.00       0.00     100.66       0.00     100.66        0.01     0.00   1.000
  Roof-B49[1]/6            100.63       0.00       0.00       0.00     100.66       0.00     100.66        0.01     0.00   1.000
  Roof-B49[2]/1            100.63       0.00       0.00       0.00     100.66       0.00     100.66        0.01     0.00   1.000
  Roof-B49[2]/2            100.63       0.00       0.00       0.00     100.66       0.00     100.66        0.01     0.00   1.000
  Roof-B49[2]/3            100.63       0.00       0.00       0.00     100.66       0.00     100.66        0.01     0.00   1.000
  Roof-B49[2]/4            100.63       0.00       0.00       0.00     100.66       0.00     100.66        0.01     0.00   1.000
  Roof-B49[2]/5            100.63       0.00       0.00       0.00     100.66       0.00     100.66        0.01     0.00   1.000
  Roof-B49[2]/6            100.63       0.00       0.00       0.00     100.66       0.00     100.66        0.01     0.00   1.000
  Roof-B49[3]/1            100.63       0.00       0.00       0.00     100.66       0.00     100.66        0.01     0.00   1.000
  Roof-B49[3]/2            100.63       0.00       0.00       0.00     100.66       0.00     100.66        0.01     0.00   1.000
  Roof-B49[3]/3            100.63       0.00       0.00       0.00     100.66       0.00     100.66        0.01     0.00   1.000
  Roof-B49[3]/4            100.63       0.00       0.00       0.00     100.64       0.00     100.64        0.02     0.01   1.000
  Roof-B49[3]/5            100.63       0.00       0.00       0.00     100.66       0.00     100.66        0.01     0.00   1.000
  Roof-B49[3]/6            100.63       0.00       0.00       0.00     100.66       0.00     100.66        0.01     0.00   1.000
  Roof-B49[4]/1            100.63       0.00       0.00       0.00     100.64       0.00     100.64        0.02     0.01   1.000
  Roof-B49[4]/2            100.63       0.00       0.00       0.00     100.64       0.00     100.64        0.02     0.01   1.000
  Roof-B49[4]/3            100.63       0.00       0.00       0.00     100.64       0.00     100.64        0.02     0.01   1.000
  Roof-B5/1                100.63       0.00       0.00       0.00     100.66       0.00     100.66        0.01     0.00   1.000
  Roof-B5/2                100.63       0.00       0.00       0.00     100.66       0.00     100.66        0.01     0.00   1.000
  Roof-B5/3                100.63       0.00       0.00       0.00     100.66       0.00     100.66        0.01     0.00   1.000
  Roof-B5/4                100.63       0.00       0.00       0.00     100.66       0.00     100.66        0.01     0.00   1.000
  Roof-B51/1               100.63       0.00       0.00       0.00     100.66       0.00     100.66        0.01     0.00   1.000
  Roof-B51/2               100.63       0.00       0.00       0.00     100.66       0.00     100.66        0.01     0.00   1.000
  Roof-B51/3               100.63       0.00       0.00       0.00     100.66       0.00     100.66        0.01     0.00   1.000
  Roof-B51/4               100.63       0.00       0.00       0.00     100.66       0.00     100.66        0.01     0.00   1.000
  Roof-B51/5               100.63       0.00       0.00       0.00     100.64       0.00     100.64        0.02     0.01   1.000
  Roof-B51/6               100.63       0.00       0.00       0.00     100.64       0.00     100.64        0.02     0.01   1.000
  Roof-B51/7               100.63       0.00       0.00       0.00     100.66       0.00     100.66        0.01     0.00   1.000
  Roof-B52[9]/1            100.63       0.00       0.00       0.00     100.64       0.00     100.64        0.01     0.00   1.000
  Roof-B52[9]/2            100.63       0.00       0.00       0.00     100.64       0.00     100.64        0.01     0.00   1.000
  Roof-B52[9]/3            100.63       0.00       0.00       0.00     100.64       0.00     100.64        0.01     0.00   1.000
  Roof-B52[9]/4            100.63       0.00       0.00       0.00     100.64       0.00     100.64        0.01     0.00   1.000
  Roof-B52[9]/5            100.63       0.00       0.00       0.00     100.64       0.00     100.64        0.01     0.00   1.000
  Roof-B52[9]/6            100.63       0.00       0.00       0.00     100.63       0.00     100.63        0.02     0.01   1.000
  Roof-B55                 100.63       0.00       0.00       0.00     100.64       0.00     100.64        0.03     0.01   1.000
  Roof-B55[2]/1            100.63       0.00       0.00       0.00     100.66       0.00     100.66        0.01     0.00   1.000
  Roof-B55[2]/2            100.63       0.00       0.00       0.00     100.66       0.00     100.66        0.01     0.00   1.000
  Roof-B55[2]/3            100.63       0.00       0.00       0.00     100.66       0.00     100.66        0.01     0.00   1.000
  Roof-B55[2]/4            100.63       0.00       0.00       0.00     100.66       0.00     100.66        0.01     0.00   1.000
  Roof-B56                 100.63       0.00       0.00       0.00     100.64       0.00     100.64        0.02     0.01   1.000
  Roof-B6                  100.63       0.00       0.00       0.00     100.64       0.00     100.64        0.03     0.01   1.000
  Roof-B7/1                100.63       0.00       0.00       0.00     100.66       0.00     100.66        0.01     0.00   1.000
  Roof-B7/2                100.63       0.00       0.00       0.00     100.66       0.00     100.66        0.01     0.00   1.000
  Roof-B7/3                100.63       0.00       0.00       0.00     100.66       0.00     100.66        0.01     0.00   1.000
  Roof-B8                  100.63       0.00       0.00       0.00     100.61       0.00     100.61        0.07     0.03   1.000
  Roof-B9/1                100.63       0.00       0.00       0.00     100.66       0.00     100.66        0.01     0.00   1.000
  Roof-B9/2                100.63       0.00       0.00       0.00     100.66       0.00     100.66        0.01     0.00   1.000
  Roof-B9/3                100.63       0.00       0.00       0.00     100.66       0.00     100.66        0.01     0.00   1.000
[...]
  S-6-L-255                   1.07      1.07      1.15      0.01         0.01
  S-6-L-256                   0.52      0.52      1.15      0.01         0.01
  S-6-L-257                   0.52      0.52      1.18      0.01         0.01
  S-6-L-258                   1.18      1.18      1.24      0.01         0.22
  S-6-L-260                   0.91      0.91      1.24      0.01         0.01
  S-6-L-261                   0.27      0.27      0.91      0.01         0.01
  S-6-L-262                   0.01      0.01      0.15      0.01         0.01
  S-6-L-267                   0.01      0.01      0.01      0.51         0.01
  S-6-L-269                   0.01      0.01      0.60      0.01         0.01
  S-6-L-270                   1.47      1.47      1.99      1.91         0.37
  S-6-L-270-add               1.45      1.47      1.45      1.92         0.92
  S-6-L-271                   0.01      0.01      0.26      0.01         0.01
  S-6-L-274                   0.01      0.01      1.46      0.01         0.01
  S-6-L-275                   0.01      0.01      1.46      0.01         0.01
  S-6-L-276                   0.01      0.01      0.01      0.41         0.01
  S-6-L-277                   0.01      0.01      1.40      0.01         0.01
  S-6-L-278                   0.01      0.01      1.67      0.01         0.01
  S-6-L-279                   1.11      1.11      1.67      0.01         0.01
  S-6-L-280                   1.11      1.11      1.73      0.01         0.01
  S-6-L-281                   1.73      1.73      1.99      0.01         0.01
  S-6-L-282                   1.98      1.99      1.99      0.25         0.26
  S-6-L-283                   0.01      0.01      1.11      0.01         0.01
  S-6-L-284                   1.46      1.46      1.73      0.01         0.01
  S-6-L-285                   0.01      0.01      0.01      0.01         0.01
  S-6-L-286                   0.01      0.01      1.40      0.01         0.01
  S-6-L-287                   0.01      0.01      0.36      0.01         0.01
  S-6-L-288                   0.36      0.36      0.39      0.01         0.01
  S-6-L-289                   0.39      0.39      0.64      0.01         0.01
  S-6-L-290                   0.64      0.64      1.23      0.01         0.01
  S-6-L-291                   1.23      1.23      1.62      0.01         0.01
  S-6-L-292                   1.62      1.62      1.84      0.01         0.01
  S-6-L-293                   1.84      1.84      2.01      0.01         0.01
  S-6-L-294                   0.01      0.01      0.30      0.01         0.01
  S-6-L-295                   0.30      0.30      0.53      0.01         0.01
  S-6-L-296                   0.53      0.53      0.60      0.01         0.01
  S-6-L-297                   0.60      0.60      0.71      0.01         0.01
  S-6-L-298                   0.71      0.71      1.02      0.01         0.01
  S-6-L-299                   0.90      0.90      1.02      0.01         0.01
  S-6-L-300                   0.90      0.90      1.00      0.01         0.01
  S-6-L-301                   0.94      0.94      1.00      0.01         0.01
  S-6-L-302                   0.94      0.94      1.28      0.01         0.01
  S-6-L-303                   1.28      1.28      1.65      0.01         0.01
  S-6-L-304                   0.01      0.01      0.80      0.01         0.01
  S-6-L-318                   0.01      0.01      0.97      0.01         0.01
  S-6-L-332                   0.01      0.01      2.93      0.01         0.01
  S-6-L-333                   1.78      1.78      2.93      0.01         0.01
  S-6-L-334                   0.01      0.01      1.78      0.01         0.01
  S-6-L-335                   0.01      0.01      1.21      0.01         0.01
  S-6-L-336                   0.01      0.01      0.08      0.01         0.01
  S-6-L-337                   0.01      0.01      0.08      0.01         0.01
  S-6-L-341                   0.01      0.01      1.60      0.01         0.01
  S-6-L-342                   0.01      0.01      1.60      0.01         0.01
  S-6-L-352                   0.01      0.01      0.01      0.85         0.01
  S-6-L-355                   0.01      0.01      1.12      0.01         0.01
  S-6-L-357                   0.01      0.01      0.15      0.01         0.01
  S-6-L-369                   0.01      0.01      4.63      0.01         0.01
  S-6-L-370                   0.36      0.36      0.47      0.01         0.01
  S-6-L-371                   0.01      0.01      4.51      0.01         0.01
  S-6-L-372                   0.01      0.01      0.36      0.01         0.01
  S-6-L-373                   0.01      0.01      4.73      0.01         0.01
  S-6-L-374                   4.72      4.72      4.73      0.01         0.01
  S-6-L-375                   4.72      4.72      4.74      0.01         0.01
  S-6-L-376                   4.72      4.72      4.74      0.01         0.01
  S-6-L-377                   4.72      4.72      4.75      0.01         0.01
  S-6-L-378                   0.01      0.01      4.73      0.01         0.01
  S-6-L-379                   0.01      0.01      1.39      0.01         0.01
  S-6-L-380                   1.04      1.04      1.39      0.01         0.01
  S-6-L-381                   1.04      1.04      1.12      0.07         0.01
  S-6-L-382                   1.12      1.12      1.35      0.01         0.01
  S-6-L-383                   1.31      1.35      1.66      0.01         0.02
  S-6-L-387                   0.01      0.01      0.01      0.34         0.01
  S-6-L-391                   0.01      0.01      0.51      0.01         0.01
  S-6-L-392                   0.51      0.51      0.70      0.01         0.01
  S-6-L-393                   0.01      0.01      0.70      0.01         0.01
  S-6-L-394                   0.01      0.01      0.01      0.67         0.01
  S-6-L-399                   0.01      0.01      0.01      1.84         0.01
  S-6-L-400                   0.01      0.01      0.01      1.53         0.01
  S-6-L-401                   0.01      0.01      0.53      0.01         0.01
  S-6-L-402                   0.53      0.53      4.72      0.01         0.01
  S-6-L-407                   0.01      0.01      0.53      0.01         0.01
  S-6-L-408                   0.01      0.01      4.74      0.01         0.01
  S-6-L-409                   0.01      0.01      4.74      0.01         0.01
  S-6-L-419                   0.01      0.01      0.75      0.01         0.01
  S-6-L-420                   0.01      0.01      0.75      0.01         0.01
  S-6-L-421                   0.01      0.01      0.21      0.51         0.01
  S-6-L-422                   0.01      0.01      0.21      0.01         0.01
  S-6-L-424                   0.01      0.01      2.60      0.01         0.01
  S-6-L-425                   0.01      0.01      2.60      0.01         0.01
  S-6-L-M01tosump2            2.08      2.08      2.12      0.01         0.01
  S-6-L-M02-L-105-1(u)tomain2        0.01      0.01      2.06      0.01         0.01
  S-6-L-M02-L-204to205(u)        0.01      0.01      0.40      0.01         0.01
  S-6-L-M02-L-205to206(u)        0.11      0.11      0.40      0.01         0.01
  S-6-L-M02to01               1.71      1.71      2.08      0.01         0.01
  S-6-L-M03to02               1.71      1.71      1.90      0.01         0.01
  S-6-L-M04to03               1.78      1.78      1.90      0.01         0.01
  S-6-L-M05to04               1.62      1.62      1.78      0.01         0.01
  S-6-L-M06-L1addto1(u)        0.35      0.35      0.87      0.01         0.01
  S-6-L-M06-L1addtoM05(u)        0.35      0.35      4.55      0.01         0.01
  S-6-L-M06-L1tomain          0.87      0.87      0.98      0.01         0.01
  S-6-L-M06-L2addtoM04        0.70      0.70      1.32      0.01         0.01
  S-6-L-M06-L3addtoM03        0.75      0.75      1.30      0.01         0.01
  S-6-L-M06-L4to3add          0.04      0.04      0.11      0.01         0.01
  S-6-L-M06-L5to4             0.01      0.01      0.04      0.01         0.01
  S-6-L-M06to05               1.62      1.62      2.31      0.01         0.01
  S-6-L-M07to06               2.26      2.26      2.31      0.01         0.01
  S-6-L-M08to07               2.08      2.08      2.26      0.01         0.01
  S-6-L-M09to08               2.07      2.07      2.08      0.01         0.01
  S-6-L-M10*1to09             2.03      2.03      2.07      0.01         0.01
  S-6-L-M-10-L102-101tomain(u)        0.01      0.01      4.77      0.01         0.01
  S-6-L-M-10-L102-106-1tomain(u)        0.01      0.01      4.78      0.01         0.01
  S-6-L-M-10-L102-106to105(u)        0.01      0.01      1.89      0.01         0.01
  S-6-L-M-10-L102-107-101-3to2(u)        0.01      0.01      0.01      0.64         0.01
  S-6-L-M-10-L102-107-101link104-1to101(u)        0.01      0.01      0.37      0.01         0.01
  S-6-L-M-10-L102-107-101tomain(u)        0.01      0.01      0.33      0.01         0.01
  S-6-L-M-10-L102-107-104-1to104(u)        0.01      0.01      4.79      0.01         0.01
  S-6-L-M-10-L102-107-104to103(u)        0.01      0.01      4.79      0.01         0.01
  S-6-L-M-10-L102-107-201tomain(u)        0.01      0.01      0.33      0.01         0.01
  S-6-L-M-10-L102-107-208to104(u)        0.01      0.01      4.79      0.01         0.01
  S-6-L-M-10-L102-107to106(u)        4.77      4.77      4.78      0.01         0.01
  S-6-L-M-10-L102-201tomain        0.01      0.01      1.82      0.01         0.01
  S-6-L-M-10-L102-202to203(u)        0.01      0.01      1.84      0.01         0.01
  S-6-L-M10to10*1             2.03      2.04      2.03      2.38         1.60
  S-6-L-M11to10               2.04      2.04      2.04      2.31         1.61
  S-6-L-M12to11               2.02      2.02      2.03      0.01         0.06
  S-6-L-M13-L1tomain          0.01      0.01      1.07      0.01         0.01
  S-6-L-M13-L2-1-1tomain(u)        0.01      0.01      0.50      0.01         0.01
  S-6-L-M13-L2-1-3to2(u)        0.01      0.01      0.43      0.01         0.01
  S-6-L-M13-L2-1toL2(u)        0.01      0.01      0.50      0.01         0.01
  S-6-L-M13-L2-2-1tomain(u)        0.01      0.01      0.50      0.01         0.01
  S-6-L-M13-L3to1(u)          0.01      0.01      1.07      0.01         0.01
  S-6-L-M13-L4-1tomain(u)        0.01      0.01      0.34      0.01         0.01
  S-6-L-M13-L4-2to1(u)        0.01      0.01      0.34      0.01         0.01
  S-6-L-M13-L5toL1(u)         0.01      0.01      1.07      0.01         0.01
  S-6-L-M13-Lmain-2toM14        0.01      0.01      0.01      0.48         0.01
  S-6-L-M13-Lmain-3toM15        0.01      0.01      4.60      0.01         0.01
  S-6-L-M13-Lmaintomain        0.01      0.01      2.05      0.01         0.01
  S-6-L-M13to12               1.91      1.91      2.02      0.01         0.01
  S-6-L-M14to13               1.84      1.84      1.91      0.01         0.01
  S-6-L-M15to14               1.79      1.79      1.84      0.01         0.01
  S-6-L-M16to15               1.74      1.74      1.79      0.01         0.01
  S-6-L-M17to16               1.61      1.61      1.74      0.01         0.01
  S-6-L-M18to17               1.61      1.61      1.67      0.01         0.01
  S-6-L-M19to18               1.67      1.67      1.70      0.01         0.14
  S-6-L-M20to19               1.70      1.70      1.98      0.01         0.01
  S-6-L-M21-L101tomain(u)        1.21      1.21      1.34      0.34         0.01
  S-6-L-M21to20               1.98      1.98      2.06      0.01         0.01
  S-6-L-M22to21               2.14      2.14      2.24      0.01         0.01
  S-6-M02-L-206to105(u)        0.01      0.01      0.11      0.01         0.01
  S-6-M-10-L102-107-101link104-2to1(u)        0.01      0.01      0.37      0.01         0.01
  S-cross-4-M10-201to6-M10        1.77      1.77      1.97      0.01         0.01
  S-cross-S-2-M03-L102-to-S-2-M21        0.82      0.82      1.88      0.01         0.01
  S-L-Maintenance-02          0.01      0.01      0.18      0.01         0.01
  S-L-Maintenance-03          0.18      0.18      0.32      0.01         0.01
  S-municipal-1               0.44      0.44      1.10      0.01         0.01
  S-municipal-10              0.01      0.01      0.01      3.49         0.01
  S-municipal-11              0.01      0.01      0.01      1.00         0.01
  S-municipal-2               0.44      0.44      0.67      0.01         0.01
  S-municipal-3               0.67      0.67      0.86      0.01         0.01
  S-municipal-4               0.25      0.25      0.98      0.01         0.01
  S-municipal-5               0.25      0.25      0.40      0.01         0.01
  S-municipal-6               0.01      0.01      0.40      0.01         0.01
  S-municipal-7               0.01      0.01      0.13      0.01         0.01
  S-municipal-8               0.01      0.13      0.01      0.82         0.01
  StoW-W-3-M03-L101           0.01      0.01      1.72      0.01         0.01
  W-1-L0M102-L101-L201-L101t0main        0.44      0.44      4.78      0.01         0.01
  W-1-L-451                   2.05      2.05      2.24      0.01         0.01
  W-1-L-453                   0.86      0.86      0.98      0.01         0.06
  W-1-L-459                   0.01      0.01      0.19      0.01         0.01
  W-1-L-M101to103(main)        1.58      1.58      4.71      0.01         0.01
  W-1-L-M102-L101-L101-01tomain        0.01      0.01      0.79      0.01         0.01
  W-1-L-M102-L101-L101tomain        0.79      0.79      1.23      0.01         0.01
  W-1-L-M102-L101-L102to101        0.72      0.72      0.79      0.01         0.01
  W-1-L-M102-L101-L103to102        0.72      0.72      0.76      0.01         0.01
  W-1-L-M102-L101-L104to103        0.39      0.39      0.76      0.01         0.01
  W-1-L-M102-L101-L105to104        0.01      0.01      0.39      0.01         0.01
  W-1-L-M102-L101-L201-L102to101        0.19      0.19      0.44      0.01         0.01
  W-1-L-M102-L101-L201-L103to102        0.02      0.02      0.19      0.01         0.01
  W-1-L-M102-L101-L201tomain        0.67      0.67      0.79      0.01         0.01
  W-1-L-M102-L101-L202to201        0.59      0.59      0.66      0.01         0.01
  W-1-L-M102-L101-L203to202        0.46      0.46      0.59      0.01         0.01
  W-1-L-M102-L101tomain        1.47      1.61      1.47      1.61         1.47
  W-1-L-M102-L102-L101/endto101        0.62      0.62      0.96      0.01         0.01
  W-1-L-M102-L102-L101tomain        0.96      0.96      0.99      0.01         0.01
  W-1-L-M102-L102to101        1.59      1.59      1.61      0.66         0.85
  W-1-L-M102-L103-01to103        0.73      0.73      0.86      0.01         0.01
  W-1-L-M102-L103to102        1.52      1.52      1.56      0.01         0.09
  W-1-L-M102-L104-L101tomain        1.46      1.46      1.54      0.71         0.01
  W-1-L-M102-L104-L102(add)to101        1.29      1.29      1.54      0.01         0.01
  W-1-L-M102-L104-L102-01to102        0.01      0.01      4.46      0.01         0.01
  W-1-L-M102-L104-L102-02tomain        0.01      0.01      1.29      0.01         0.01
  W-1-L-M102-L104-L102to102(add)        1.01      1.01      1.27      0.01         0.01
  W-1-L-M102-L104-L103-01to103        0.51      0.51      0.53      0.01         0.01
  W-1-L-M102-L104-L103to102        0.53      0.53      0.96      0.01         0.01
  W-1-L-M102-L104-L104to103        0.47      0.47      0.53      0.01         0.01
  W-1-L-M102-L104to103        1.46      1.46      1.48      0.87         0.90
  W-1-L-M102-L105to104        1.27      1.27      1.38      0.01         0.01
  W-1-L-M102-L106-L02tomain        1.12      1.12      1.12      0.01         0.48
  W-1-L-M102-L106-L101-endtomain        0.80      0.80      1.12      0.01         0.01
  W-1-L-M102-L106-L101toend        0.66      0.66      0.80      0.01         0.01
  W-1-L-M102-L106-L102to101        0.01      0.01      4.33      0.01         0.01
  W-1-L-M102-L106to105        1.12      1.12      1.27      0.01         0.01
  W-1-L-M102-L107to106        1.01      1.01      1.12      0.01         0.01
  W-1-L-M102-L108to107        0.88      0.88      1.01      0.01         0.01
  W-1-L-M102-L109to108        0.72      0.72      0.88      0.01         0.01
  W-1-L-M102-L110to109        0.65      0.65      0.72      0.01         0.01
  W-1-L-M102-L111to110        0.50      0.50      0.65      0.01         0.01
  W-1-L-M102-L112to111        0.01      0.01      0.50      0.01         0.01
  W-1-L-M102to101             1.47      1.47      1.58      0.01         0.01
  W-1-L-M103to102             0.60      0.60      1.30      0.01         0.01
  W-1-L-M103to102(main)        0.01      0.01      4.71      1.49         0.01
  W-2-L-M02(add)to02          1.82      1.82      2.04      0.01         0.01
  W-2-L-M02-L101tomain        0.01      0.01      1.64      0.01         0.01
  W-2-L-M03to02(add)          1.82      1.82      2.36      2.05         0.01
  W-2-L-M04-301tomain         2.07      2.07      3.09      0.01         0.01
  W-2-L-M04-L201tomain        1.60      1.60      1.87      0.01         0.01
  W-2-L-M04-L202to201         1.21      1.21      1.60      0.01         0.01
  W-2-L-M04-L203-01tomain        0.87      0.87      0.97      0.01         0.01
  W-2-L-M04-L203to202         0.97      0.97      1.21      0.01         0.01
  W-2-L-M04-L204to203         0.65      0.65      0.97      0.01         0.01
  W-2-L-M04-L205to204         0.51      0.51      0.65      0.01         0.01
  W-2-L-M04-L301-1tomain        1.08      1.08      1.77      0.01         0.01
  W-2-L-M04-L302to301         1.81      1.81      1.86      0.01         0.01
  W-2-L-M04to03               2.05      2.05      2.41      2.22         0.01
  W-2-L-M06-L101tomain        2.10      2.10      4.98      2.00         2.05
  W-2-L-M06-L102to101         2.10      2.11      2.10      2.11         2.10
  W-2-L-M06-L103to102         1.76      1.76      2.03      0.01         0.01
  W-2-L-M06-L111to110         2.13      2.14      2.16      1.64         0.03
  W-2-L-M06tosump1            4.98      4.98      4.98      0.01         0.01
  W-2-M01to03(main)           2.13      2.13      4.71      0.01         0.01
  W-2-M02to01                 2.04      2.04      2.12      0.77         1.08
  W-3-L-M01to2-M06-L102        2.11      2.14      2.11      2.16         2.11
  W-3-M02to01                 2.00      2.00      2.10      0.01         0.01
  W-3-M03-L101tomain          1.72      1.72      2.06      0.01         0.01
  W-3-M03to02                 2.00      2.10      2.00      3.13         2.00
  W-3-M05to03                 0.01      0.01      4.35      0.01         0.01
  W-1-L-476                   2.03      2.03      2.04      0.01         0.01
  
  
  ***************
  Pumping Summary
  ***************
  
  ---------------------------------------------------------------------------------------------------------
                                                  Min       Avg       Max     Total     Power    % Time Off
                        Percent   Number of      Flow      Flow      Flow    Volume     Usage    Pump Curve
  Pump                 Utilized   Start-Ups       CMS       CMS       CMS  10^6 ltr     Kw-hr    Low   High
  ---------------------------------------------------------------------------------------------------------
  Storm-Pump-sump1        67.28           5      0.00      0.14      0.16     1.645      2.51    0.0    3.7
  Storm-Pump-sump2        57.49          13      0.00      0.14      0.16     1.498      6.77    0.0    6.3
  Storm-Pump-sump3        77.75           1      0.00      0.00      0.02     0.057      0.12    0.0    0.0
  Waste-Pump-sump1        87.33           5      0.00      0.01      0.01     0.108      0.38    0.0    0.0
  

  Analysis begun on:  Fri Nov 29 10:09:07 2019
  Analysis ended on:  Fri Nov 29 10:09:20 2019
  Total elapsed time: 00:00:13