
  EPA STORM WATER MANAGEMENT MODEL - VERSION 5.1 (Build 5.1.013)
  --------------------------------------------------------------

  WARNING 04: minimum elevation drop used for Conduit S-1-L-M05-L105to104
  WARNING 04: minimum elevation drop used for Conduit S-2-L-M(beside-R)-2to3(u)
  WARNING 04: minimum elevation drop used for Conduit S-2-L-M(beside-R)-4-1-5to4(u)
  WARNING 04: minimum elevation drop used for Conduit S-2-L-M(beside-R)-4-2-11to10(u)
  WARNING 04: minimum elevation drop used for Conduit S-2-L-M(beside-R)-4-2-3to2(u)
  WARNING 04: minimum elevation drop used for Conduit S-2-L-M(beside-R)-4-2-4to3(u)
  WARNING 04: minimum elevation drop used for Conduit S-2-L-M(beside-R3)-1-1-2to1(u)
  WARNING 04: minimum elevation drop used for Conduit S-2-L-M(beside-R3)-1-1-3to2(u)
  WARNING 04: minimum elevation drop used for Conduit S-2-L-M(beside-R5)-10to101
  WARNING 04: minimum elevation drop used for Conduit S-2-L-M02-L104-L102-105to104
  WARNING 04: minimum elevation drop used for Conduit S-2-L-M03-L101-18-104to103(u)
  WARNING 04: minimum elevation drop used for Conduit S-2-L-M03-L101-22to21(u)
  WARNING 04: minimum elevation drop used for Conduit S-2-L-M03-L101-23to22(u)
  WARNING 04: minimum elevation drop used for Conduit S-2-L-M03-L101-2to1(u)
  WARNING 04: minimum elevation drop used for Conduit S-2-L-M03-L101-5to4(u)
  WARNING 04: minimum elevation drop used for Conduit S-2-L-M03-L102*1-7to6(u)
  WARNING 04: minimum elevation drop used for Conduit S-2-L-M06(beside-L1)-2to3(u)
  WARNING 04: minimum elevation drop used for Conduit S-2-L-M06(beside-L2)-1to2(u)
  WARNING 04: minimum elevation drop used for Conduit S-2-L-M07-L01-104to103(u)
  WARNING 03: negative offset ignored for Link S-2-L-M07-L01-201tomain(u)
  WARNING 04: minimum elevation drop used for Conduit S-2-L-M14to13
  WARNING 04: minimum elevation drop used for Conduit S-2-L-M17to16
  WARNING 04: minimum elevation drop used for Conduit S-2-L-M20-L104-L101-right-104tomain
  WARNING 04: minimum elevation drop used for Conduit S-2-L-M20-L104-L101-right-105tomain
  WARNING 04: minimum elevation drop used for Conduit S-2-L-M20-L104-L102to101
  WARNING 04: minimum elevation drop used for Conduit S-2-L-M20-L104-L103*1-5to4(u)
  WARNING 04: minimum elevation drop used for Conduit S-2-L-M20-L104-L103*1-6to5(u)
  WARNING 04: minimum elevation drop used for Conduit S-2-L-M20-L104-L103*1-7to6(u)
  WARNING 04: minimum elevation drop used for Conduit S-2-L-M20-L104-L105to104
  WARNING 04: minimum elevation drop used for Conduit S-2-L-M20-L109/link2,6-111to110(u)
  WARNING 04: minimum elevation drop used for Conduit S-2-L-M20-L109/link2,6-201-3to2(u)
  WARNING 04: minimum elevation drop used for Conduit S-2-L-M20-L109/link2,6-202-1to201(u)
  WARNING 04: minimum elevation drop used for Conduit S-2-L-M21(besideL)-2to1
  WARNING 04: minimum elevation drop used for Conduit S-2-L-M25to24
  WARNING 04: minimum elevation drop used for Conduit S-6-L-224
  WARNING 04: minimum elevation drop used for Conduit S-6-L-225
  WARNING 04: minimum elevation drop used for Conduit S-6-L-238
  WARNING 04: minimum elevation drop used for Conduit S-6-L-239
  WARNING 04: minimum elevation drop used for Conduit S-6-L-241
  WARNING 04: minimum elevation drop used for Conduit S-6-L-267
  WARNING 04: minimum elevation drop used for Conduit S-6-L-270-add
  WARNING 04: minimum elevation drop used for Conduit S-6-L-276
  WARNING 04: minimum elevation drop used for Conduit S-6-L-327
  WARNING 04: minimum elevation drop used for Conduit S-6-L-352
  WARNING 04: minimum elevation drop used for Conduit S-6-L-361
  WARNING 04: minimum elevation drop used for Conduit S-6-L-387
  WARNING 04: minimum elevation drop used for Conduit S-6-L-394
  WARNING 04: minimum elevation drop used for Conduit S-6-L-399
  WARNING 04: minimum elevation drop used for Conduit S-6-L-400
  WARNING 04: minimum elevation drop used for Conduit S-6-L-413
  WARNING 04: minimum elevation drop used for Conduit S-6-L-421
  WARNING 04: minimum elevation drop used for Conduit S-6-L-M-10-L102-107-101-3to2(u)
  WARNING 04: minimum elevation drop used for Conduit S-6-L-M10to10*1
  WARNING 04: minimum elevation drop used for Conduit S-6-L-M11to10
  WARNING 04: minimum elevation drop used for Conduit S-6-L-M13-L2-2-3to2(u)
  WARNING 04: minimum elevation drop used for Conduit S-6-L-M13-L4-10to9(u)
  WARNING 04: minimum elevation drop used for Conduit S-6-L-M13-L4-11to10(u)
  WARNING 04: minimum elevation drop used for Conduit S-6-L-M13-Lmain-2toM14
  WARNING 04: minimum elevation drop used for Conduit S-6-L-M22-right-10to9(u)
  WARNING 04: minimum elevation drop used for Conduit S-municipal-10
  WARNING 04: minimum elevation drop used for Conduit W-1-L-M102-L101-L106to105
  WARNING 08: elevation drop exceeds length for Conduit W-1-L-M102-L104-L102-02tomain
  WARNING 04: minimum elevation drop used for Conduit W-1-L-M102-L106-L02tomain
  WARNING 04: minimum elevation drop used for Conduit W-1-L-M105-L203to202
  WARNING 04: minimum elevation drop used for Conduit W-1-L-M105to104
  WARNING 03: negative offset ignored for Link W-2-L-M02-L103ro102
  WARNING 04: minimum elevation drop used for Conduit W-2-L-M04-L304-L102to101
  WARNING 04: minimum elevation drop used for Conduit W-2-L-M04-L307to308
  WARNING 04: minimum elevation drop used for Conduit W-2-L-M06-L203-01tomain
  WARNING 04: minimum elevation drop used for Conduit W-3-M03to02
  WARNING 08: elevation drop exceeds length for Conduit W-northmain3-sump
  WARNING 02: maximum depth increased for Node S-1-M05-L101
  WARNING 02: maximum depth increased for Node S-1-M05-L102
  WARNING 02: maximum depth increased for Node S-1-M05-L103
  WARNING 02: maximum depth increased for Node S-1-M07*1-L101-1(u)
  WARNING 02: maximum depth increased for Node S-1-M09*1-L101(u)
  WARNING 02: maximum depth increased for Node S-1-M09*1-L102(u)
  WARNING 02: maximum depth increased for Node S-1-M09*1-L103/end(u)
  WARNING 02: maximum depth increased for Node S-2-M(beside-R4)-1-1-3(u)
  WARNING 02: maximum depth increased for Node S-2-M(beside-R5)-1(u)
  WARNING 02: maximum depth increased for Node S-2-M03-L101-18-105(u)
  WARNING 02: maximum depth increased for Node S-2-M03-L102*1-9(u)
  WARNING 02: maximum depth increased for Node S-2-M06(beside-L1)-1(u)
  WARNING 02: maximum depth increased for Node S-2-M20-L104-L101-right-101(u)
  WARNING 02: maximum depth increased for Node S-2-M20-L104-L101-right-103(u)
  WARNING 02: maximum depth increased for Node S-2-M20-L104-L101-right-103-7(u)
  WARNING 02: maximum depth increased for Node S-2-M20-L104-L101-right-103-8(u)
  WARNING 02: maximum depth increased for Node S-2-M20-L104-L101-right-104(u)
  WARNING 02: maximum depth increased for Node S-2-M20-L104-L101-right-105(u)
  WARNING 02: maximum depth increased for Node S-2-M20-L104-L101-right-106(u)
  WARNING 02: maximum depth increased for Node S-2-M20-L104-L101-right-113-101-4(u)
  WARNING 02: maximum depth increased for Node S-2-M20-L104-L101-right-113-104-5(u)
  WARNING 02: maximum depth increased for Node S-2-M20-L104-L101-right-113-104-6(u)
  WARNING 02: maximum depth increased for Node S-2-M20-L104-L101-right-113-106-109(u)
  WARNING 02: maximum depth increased for Node S-2-M20-L104-L101-right-118-10(u)
  WARNING 02: maximum depth increased for Node S-2-M20-L104-L101-right-118-8(u)
  WARNING 02: maximum depth increased for Node S-2-M20-L104-L104
  WARNING 02: maximum depth increased for Node S-2-M20-L104-L105
  WARNING 02: maximum depth increased for Node S-2-M20-L109/link2,6-201-8(u)
  WARNING 02: maximum depth increased for Node S-2-M20-L109/link2,6-201-9(u)
  WARNING 02: maximum depth increased for Node S-2-M20-L109/link2,6-202-7(u)
  WARNING 02: maximum depth increased for Node S-2-M21(besideL)-8(u)
  WARNING 02: maximum depth increased for Node S-2-M21(besideL)-9(u)
  WARNING 02: maximum depth increased for Node S-2-M21-link-M20-L104-L101-2(u)
  WARNING 02: maximum depth increased for Node S-2-M21-link-M20-L104-L101-3(u)
  WARNING 02: maximum depth increased for Node S-4-M10-L201-101-111(u)
  WARNING 02: maximum depth increased for Node S-4-M10-L201-101-202(u)
  WARNING 02: maximum depth increased for Node S-4-M10-L201-101-203(u)
  WARNING 02: maximum depth increased for Node S-4-M10-L201-101-208(u)
  WARNING 02: maximum depth increased for Node S-4-M10-L201-202-104-2(u)
  WARNING 02: maximum depth increased for Node S-4-M10-L201-202-208-1(u)
  WARNING 02: maximum depth increased for Node S-6-M02-L-203(u)
  WARNING 02: maximum depth increased for Node S-6-M-10-L102-101(u)
  WARNING 02: maximum depth increased for Node S-6-M-10-L102-102(u)
  WARNING 02: maximum depth increased for Node S-6-M-10-L102-105(u)
  WARNING 02: maximum depth increased for Node S-6-M-10-L102-107-101(u)
  WARNING 02: maximum depth increased for Node S-6-M-10-L102-107-104(u)
  WARNING 02: maximum depth increased for Node S-6-M-10-L102-201(u)
  WARNING 02: maximum depth increased for Node S-6-M-10-L102-202(u)
  WARNING 02: maximum depth increased for Node S-6-M-10-L102-main(u)
  WARNING 02: maximum depth increased for Node S-6-M19-L104(u)
  WARNING 02: maximum depth increased for Node S-6-M19-L105(u)
  WARNING 02: maximum depth increased for Node S-6-M19-L106(u)
  WARNING 02: maximum depth increased for Node S-6-M19-L109(u)
  WARNING 02: maximum depth increased for Node S-6-M19-L202(u)
  WARNING 02: maximum depth increased for Node S-6-M19-L204(u)
  WARNING 02: maximum depth increased for Node S-6-M19-L205(u)
  WARNING 02: maximum depth increased for Node S-6-M19-L206(u)
  WARNING 02: maximum depth increased for Node S-6-M21-105-3(u)
  WARNING 02: maximum depth increased for Node S-6-M21-105-4(u)
  WARNING 02: maximum depth increased for Node S-6-M21-105-5(u)
  WARNING 02: maximum depth increased for Node S-6-M21-L108(u)
  WARNING 02: maximum depth increased for Node S-6-M21-L109(u)
  WARNING 02: maximum depth increased for Node S-6-M21-L116(u)
  WARNING 02: maximum depth increased for Node S-6-M21-L120(u)
  WARNING 02: maximum depth increased for Node S-6-M22-right-1(u)
  WARNING 02: maximum depth increased for Node S-6-M22-right-3(u)
  WARNING 02: maximum depth increased for Node W-2-M06-L101
  
  *********************************************************
  NOTE: The summary statistics displayed in this report are
  based on results found at every computational time step,  
  not just on results from each reporting time step.
  *********************************************************
  
  ****************
  Analysis Options
  ****************
  Flow Units ............... CMS
  Process Models:
    Rainfall/Runoff ........ YES
    RDII ................... NO
    Snowmelt ............... NO
    Groundwater ............ NO
    Flow Routing ........... YES
    Ponding Allowed ........ YES
    Water Quality .......... NO
  Infiltration Method ...... HORTON
  Flow Routing Method ...... DYNWAVE
  Surcharge Method ......... EXTRAN
  Starting Date ............ 08/05/2011 00:00:00
  Ending Date .............. 08/05/2011 05:00:00
  Antecedent Dry Days ...... 0.0
  Report Time Step ......... 00:00:30
  Wet Time Step ............ 00:00:30
  Dry Time Step ............ 00:00:30
  Routing Time Step ........ 1.00 sec
  Variable Time Step ....... NO
  Maximum Trials ........... 8
  Number of Threads ........ 1
  Head Tolerance ........... 0.001524 m
  
  
  **************************        Volume         Depth
  Runoff Quantity Continuity     hectare-m            mm
  **************************     ---------       -------
  Total Precipitation ......         0.000         0.000
  Evaporation Loss .........         0.000         0.000
  Infiltration Loss ........         0.000         0.000
  Surface Runoff ...........         0.000         0.000
  Final Storage ............         0.000         0.000
  Continuity Error (%) .....         0.000
  
  
  **************************        Volume        Volume
  Flow Routing Continuity        hectare-m      10^6 ltr
  **************************     ---------     ---------
  Dry Weather Inflow .......         0.000         0.000
  Wet Weather Inflow .......         0.000         0.000
  Groundwater Inflow .......         0.000         0.000
  RDII Inflow ..............         0.000         0.000
  External Inflow ..........         0.000         0.000
  External Outflow .........         0.000         0.000
  Flooding Loss ............         0.000         0.000
  Evaporation Loss .........         0.000         0.000
  Exfiltration Loss ........         0.000         0.000
  Initial Stored Volume ....         0.001         0.013
  Final Stored Volume ......         0.001         0.013
  Continuity Error (%) .....         0.000
  
  
  ********************************
  Highest Flow Instability Indexes
  ********************************
  All links are stable.
  
  
  ***************************
  Subcatchment Runoff Summary
  ***************************
  
  ------------------------------------------------------------------------------------------------------------------------------
                            Total      Total      Total      Total     Imperv       Perv      Total       Total     Peak  Runoff
                           Precip      Runon       Evap      Infil     Runoff     Runoff     Runoff      Runoff   Runoff   Coeff
  Subcatchment                 mm         mm         mm         mm         mm         mm         mm    10^6 ltr      CMS
  ------------------------------------------------------------------------------------------------------------------------------
  Land-358                   0.00       0.00       0.00       0.00       0.00       0.00       0.00        0.00     0.00   0.000
  Land-359                   0.00       0.00       0.00       0.00       0.00       0.00       0.00        0.00     0.00   0.000
  Land-364                   0.00       0.00       0.00       0.00       0.00       0.00       0.00        0.00     0.00   0.000
  Land-365                   0.00       0.00       0.00       0.00       0.00       0.00       0.00        0.00     0.00   0.000
  Land-368                   0.00       0.00       0.00       0.00       0.00       0.00       0.00        0.00     0.00   0.000
  Land-369                   0.00       0.00       0.00       0.00       0.00       0.00       0.00        0.00     0.00   0.000
  Land-371                   0.00       0.00       0.00       0.00       0.00       0.00       0.00        0.00     0.00   0.000
  Land-372                   0.00       0.00       0.00       0.00       0.00       0.00       0.00        0.00     0.00   0.000
  Land-373                   0.00       0.00       0.00       0.00       0.00       0.00       0.00        0.00     0.00   0.000
  Land-374                   0.00       0.00       0.00       0.00       0.00       0.00       0.00        0.00     0.00   0.000
  Land-375                   0.00       0.00       0.00       0.00       0.00       0.00       0.00        0.00     0.00   0.000
  Land-376                   0.00       0.00       0.00       0.00       0.00       0.00       0.00        0.00     0.00   0.000
  Land-377                   0.00       0.00       0.00       0.00       0.00       0.00       0.00        0.00     0.00   0.000
  Land-378                   0.00       0.00       0.00       0.00       0.00       0.00       0.00        0.00     0.00   0.000
  Land-379                   0.00       0.00       0.00       0.00       0.00       0.00       0.00        0.00     0.00   0.000
  Land-380                   0.00       0.00       0.00       0.00       0.00       0.00       0.00        0.00     0.00   0.000
  Land-381                   0.00       0.00       0.00       0.00       0.00       0.00       0.00        0.00     0.00   0.000
  Land-382                   0.00       0.00       0.00       0.00       0.00       0.00       0.00        0.00     0.00   0.000
  Land-383                   0.00       0.00       0.00       0.00       0.00       0.00       0.00        0.00     0.00   0.000
  Land-384                   0.00       0.00       0.00       0.00       0.00       0.00       0.00        0.00     0.00   0.000
  Land-385                   0.00       0.00       0.00       0.00       0.00       0.00       0.00        0.00     0.00   0.000
  Land-386                   0.00       0.00       0.00       0.00       0.00       0.00       0.00        0.00     0.00   0.000
  Land-387                   0.00       0.00       0.00       0.00       0.00       0.00       0.00        0.00     0.00   0.000
  Land-388                   0.00       0.00       0.00       0.00       0.00       0.00       0.00        0.00     0.00   0.000
  Land-390                   0.00       0.00       0.00       0.00       0.00       0.00       0.00        0.00     0.00   0.000
  Land-391                   0.00       0.00       0.00       0.00       0.00       0.00       0.00        0.00     0.00   0.000
  Land-392                   0.00       0.00       0.00       0.00       0.00       0.00       0.00        0.00     0.00   0.000
  Land-394                   0.00       0.00       0.00       0.00       0.00       0.00       0.00        0.00     0.00   0.000
  Land-395                   0.00       0.00       0.00       0.00       0.00       0.00       0.00        0.00     0.00   0.000
  Land-396                   0.00       0.00       0.00       0.00       0.00       0.00       0.00        0.00     0.00   0.000
  Land-400                   0.00       0.00       0.00       0.00       0.00       0.00       0.00        0.00     0.00   0.000
  Land-405                   0.00       0.00       0.00       0.00       0.00       0.00       0.00        0.00     0.00   0.000
  Land-406                   0.00       0.00       0.00       0.00       0.00       0.00       0.00        0.00     0.00   0.000
  Land-407                   0.00       0.00       0.00       0.00       0.00       0.00       0.00        0.00     0.00   0.000
  Land-408                   0.00       0.00       0.00       0.00       0.00       0.00       0.00        0.00     0.00   0.000
  Land-409                   0.00       0.00       0.00       0.00       0.00       0.00       0.00        0.00     0.00   0.000
  Land-410                   0.00       0.00       0.00       0.00       0.00       0.00       0.00        0.00     0.00   0.000
  Land-411                   0.00       0.00       0.00       0.00       0.00       0.00       0.00        0.00     0.00   0.000
  Land-412                   0.00       0.00       0.00       0.00       0.00       0.00       0.00        0.00     0.00   0.000
  Land-4414                  0.00       0.00       0.00       0.00       0.00       0.00       0.00        0.00     0.00   0.000
  Land-4415                  0.00       0.00       0.00       0.00       0.00       0.00       0.00        0.00     0.00   0.000
  Land-4418                  0.00       0.00       0.00       0.00       0.00       0.00       0.00        0.00     0.00   0.000
  Land-4419                  0.00       0.00       0.00       0.00       0.00       0.00       0.00        0.00     0.00   0.000
  Land-4443                  0.00       0.00       0.00       0.00       0.00       0.00       0.00        0.00     0.00   0.000
  Land-4452                  0.00       0.00       0.00       0.00       0.00       0.00       0.00        0.00     0.00   0.000
  Land-4462                  0.00       0.00       0.00       0.00       0.00       0.00       0.00        0.00     0.00   0.000
  Land-4464                  0.00       0.00       0.00       0.00       0.00       0.00       0.00        0.00     0.00   0.000
  Land-4482                  0.00       0.00       0.00       0.00       0.00       0.00       0.00        0.00     0.00   0.000
  Land-4484                  0.00       0.00       0.00       0.00       0.00       0.00       0.00        0.00     0.00   0.000
  Land-4498                  0.00       0.00       0.00       0.00       0.00       0.00       0.00        0.00     0.00   0.000
  Land-4499                  0.00       0.00       0.00       0.00       0.00       0.00       0.00        0.00     0.00   0.000
  Land-4500                  0.00       0.00       0.00       0.00       0.00       0.00       0.00        0.00     0.00   0.000
  Land-B21[2]-1              0.00       0.00       0.00       0.00       0.00       0.00       0.00        0.00     0.00   0.000
  Land-G-B3                  0.00       0.00       0.00       0.00       0.00       0.00       0.00        0.00     0.00   0.000
  Land-G-B-X-3/1             0.00       0.00       0.00       0.00       0.00       0.00       0.00        0.00     0.00   0.000
  Land-Grass-1               0.00       0.00       0.00       0.00       0.00       0.00       0.00        0.00     0.00   0.000
  Land-Grass-2               0.00       0.00       0.00       0.00       0.00       0.00       0.00        0.00     0.00   0.000
  Land-Grass-3               0.00       0.00       0.00       0.00       0.00       0.00       0.00        0.00     0.00   0.000
  Land-near-                 0.00       0.00       0.00       0.00       0.00       0.00       0.00        0.00     0.00   0.000
  Land-near-B[45]-10         0.00       0.00       0.00       0.00       0.00       0.00       0.00        0.00     0.00   0.000
  Land-near-B[45]-5          0.00       0.00       0.00       0.00       0.00       0.00       0.00        0.00     0.00   0.000
  Land-near-B[45]-8          0.00       0.00       0.00       0.00       0.00       0.00       0.00        0.00     0.00   0.000
  Land-near-B[45]-9          0.00       0.00       0.00       0.00       0.00       0.00       0.00        0.00     0.00   0.000
  Land-near-B[shop]-2        0.00       0.00       0.00       0.00       0.00       0.00       0.00        0.00     0.00   0.000
  Land-near-B1-1             0.00       0.00       0.00       0.00       0.00       0.00       0.00        0.00     0.00   0.000
  Land-near-B1-2             0.00       0.00       0.00       0.00       0.00       0.00       0.00        0.00     0.00   0.000
  Land-near-B1-22            0.00       0.00       0.00       0.00       0.00       0.00       0.00        0.00     0.00   0.000
  Land-near-B1-23            0.00       0.00       0.00       0.00       0.00       0.00       0.00        0.00     0.00   0.000
  Land-near-B1-3             0.00       0.00       0.00       0.00       0.00       0.00       0.00        0.00     0.00   0.000
  Land-near-B1-5             0.00       0.00       0.00       0.00       0.00       0.00       0.00        0.00     0.00   0.000
  Land-near-B1-6             0.00       0.00       0.00       0.00       0.00       0.00       0.00        0.00     0.00   0.000
  Land-near-B1-9             0.00       0.00       0.00       0.00       0.00       0.00       0.00        0.00     0.00   0.000
  Land-near-B2-1             0.00       0.00       0.00       0.00       0.00       0.00       0.00        0.00     0.00   0.000
  Land-near-B2-2             0.00       0.00       0.00       0.00       0.00       0.00       0.00        0.00     0.00   0.000
  Land-near-B2-3             0.00       0.00       0.00       0.00       0.00       0.00       0.00        0.00     0.00   0.000
  Land-near-B23-1            0.00       0.00       0.00       0.00       0.00       0.00       0.00        0.00     0.00   0.000
  Land-near-B23-2            0.00       0.00       0.00       0.00       0.00       0.00       0.00        0.00     0.00   0.000
  Land-near-B23-4            0.00       0.00       0.00       0.00       0.00       0.00       0.00        0.00     0.00   0.000
  Land-near-B2-4             0.00       0.00       0.00       0.00       0.00       0.00       0.00        0.00     0.00   0.000
  Land-near-B25-2            0.00       0.00       0.00       0.00       0.00       0.00       0.00        0.00     0.00   0.000
  Land-near-B26-1            0.00       0.00       0.00       0.00       0.00       0.00       0.00        0.00     0.00   0.000
  Land-near-B28-1            0.00       0.00       0.00       0.00       0.00       0.00       0.00        0.00     0.00   0.000
  Land-near-B28-3            0.00       0.00       0.00       0.00       0.00       0.00       0.00        0.00     0.00   0.000
  Land-near-B28-4            0.00       0.00       0.00       0.00       0.00       0.00       0.00        0.00     0.00   0.000
  Land-near-B29-2            0.00       0.00       0.00       0.00       0.00       0.00       0.00        0.00     0.00   0.000
  Land-near-B29-3            0.00       0.00       0.00       0.00       0.00       0.00       0.00        0.00     0.00   0.000
  Land-near-B29-4            0.00       0.00       0.00       0.00       0.00       0.00       0.00        0.00     0.00   0.000
  Land-near-B29-5            0.00       0.00       0.00       0.00       0.00       0.00       0.00        0.00     0.00   0.000
  Land-near-B31-1            0.00       0.00       0.00       0.00       0.00       0.00       0.00        0.00     0.00   0.000
  Land-near-B33-1            0.00       0.00       0.00       0.00       0.00       0.00       0.00        0.00     0.00   0.000
  Land-near-B3-6             0.00       0.00       0.00       0.00       0.00       0.00       0.00        0.00     0.00   0.000
  Land-near-B3-7             0.00       0.00       0.00       0.00       0.00       0.00       0.00        0.00     0.00   0.000
  Land-near-B41-1            0.00       0.00       0.00       0.00       0.00       0.00       0.00        0.00     0.00   0.000
  Land-near-B41-2            0.00       0.00       0.00       0.00       0.00       0.00       0.00        0.00     0.00   0.000
  Land-near-B4-2             0.00       0.00       0.00       0.00       0.00       0.00       0.00        0.00     0.00   0.000
  Land-near-B4-3             0.00       0.00       0.00       0.00       0.00       0.00       0.00        0.00     0.00   0.000
  Land-near-B44-1            0.00       0.00       0.00       0.00       0.00       0.00       0.00        0.00     0.00   0.000
  Land-near-B44-2            0.00       0.00       0.00       0.00       0.00       0.00       0.00        0.00     0.00   0.000
  Land-near-B44-8            0.00       0.00       0.00       0.00       0.00       0.00       0.00        0.00     0.00   0.000
  Land-near-B45[1]-1         0.00       0.00       0.00       0.00       0.00       0.00       0.00        0.00     0.00   0.000
  Land-near-B45[1]-2         0.00       0.00       0.00       0.00       0.00       0.00       0.00        0.00     0.00   0.000
  Land-near-B45[3]-1         0.00       0.00       0.00       0.00       0.00       0.00       0.00        0.00     0.00   0.000
  Land-near-B45[3]-2         0.00       0.00       0.00       0.00       0.00       0.00       0.00        0.00     0.00   0.000
  Land-near-B45[3]-3         0.00       0.00       0.00       0.00       0.00       0.00       0.00        0.00     0.00   0.000
  Land-near-B45[3]-4         0.00       0.00       0.00       0.00       0.00       0.00       0.00        0.00     0.00   0.000
  Land-near-B45[4]-1         0.00       0.00       0.00       0.00       0.00       0.00       0.00        0.00     0.00   0.000
  Land-near-B45[5]-1         0.00       0.00       0.00       0.00       0.00       0.00       0.00        0.00     0.00   0.000
  Land-near-B4-6             0.00       0.00       0.00       0.00       0.00       0.00       0.00        0.00     0.00   0.000
  Land-near-B46[2]-1         0.00       0.00       0.00       0.00       0.00       0.00       0.00        0.00     0.00   0.000
  Land-near-B46[2]-10        0.00       0.00       0.00       0.00       0.00       0.00       0.00        0.00     0.00   0.000
  Land-near-B46[2]-11        0.00       0.00       0.00       0.00       0.00       0.00       0.00        0.00     0.00   0.000
  Land-near-B46[2]-12        0.00       0.00       0.00       0.00       0.00       0.00       0.00        0.00     0.00   0.000
  Land-near-B46[2]-13        0.00       0.00       0.00       0.00       0.00       0.00       0.00        0.00     0.00   0.000
  Land-near-B46[2]-15        0.00       0.00       0.00       0.00       0.00       0.00       0.00        0.00     0.00   0.000
  Land-near-B46[2]-18        0.00       0.00       0.00       0.00       0.00       0.00       0.00        0.00     0.00   0.000
  Land-near-B46[2]-19        0.00       0.00       0.00       0.00       0.00       0.00       0.00        0.00     0.00   0.000
  Land-near-B46[2]-20        0.00       0.00       0.00       0.00       0.00       0.00       0.00        0.00     0.00   0.000
  Land-near-B46[2]-3         0.00       0.00       0.00       0.00       0.00       0.00       0.00        0.00     0.00   0.000
  Land-near-B46[2]-4         0.00       0.00       0.00       0.00       0.00       0.00       0.00        0.00     0.00   0.000
  Land-near-B46[2]-8         0.00       0.00       0.00       0.00       0.00       0.00       0.00        0.00     0.00   0.000
  Land-near-B46[2]-9         0.00       0.00       0.00       0.00       0.00       0.00       0.00        0.00     0.00   0.000
  Land-near-B4-7             0.00       0.00       0.00       0.00       0.00       0.00       0.00        0.00     0.00   0.000
  Land-near-B47-1            0.00       0.00       0.00       0.00       0.00       0.00       0.00        0.00     0.00   0.000
  Land-near-B47-3            0.00       0.00       0.00       0.00       0.00       0.00       0.00        0.00     0.00   0.000
  Land-near-B48[1]-3         0.00       0.00       0.00       0.00       0.00       0.00       0.00        0.00     0.00   0.000
  Land-near-B48[1]-5         0.00       0.00       0.00       0.00       0.00       0.00       0.00        0.00     0.00   0.000
  Land-near-B48[2]-1         0.00       0.00       0.00       0.00       0.00       0.00       0.00        0.00     0.00   0.000
  Land-near-B48[2]-2         0.00       0.00       0.00       0.00       0.00       0.00       0.00        0.00     0.00   0.000
  Land-near-B48[3]-1         0.00       0.00       0.00       0.00       0.00       0.00       0.00        0.00     0.00   0.000
  Land-near-B48[3]-2         0.00       0.00       0.00       0.00       0.00       0.00       0.00        0.00     0.00   0.000
  Land-near-B48[3]-3         0.00       0.00       0.00       0.00       0.00       0.00       0.00        0.00     0.00   0.000
  Land-near-B48[5]-1         0.00       0.00       0.00       0.00       0.00       0.00       0.00        0.00     0.00   0.000
  Land-near-B48[5]-2         0.00       0.00       0.00       0.00       0.00       0.00       0.00        0.00     0.00   0.000
  Land-near-B48[5]-3         0.00       0.00       0.00       0.00       0.00       0.00       0.00        0.00     0.00   0.000
  Land-near-B48[6]-1         0.00       0.00       0.00       0.00       0.00       0.00       0.00        0.00     0.00   0.000
  Land-near-B48[6]-3         0.00       0.00       0.00       0.00       0.00       0.00       0.00        0.00     0.00   0.000
  Land-near-B48[7]-1         0.00       0.00       0.00       0.00       0.00       0.00       0.00        0.00     0.00   0.000
  Land-near-B48[7]-2         0.00       0.00       0.00       0.00       0.00       0.00       0.00        0.00     0.00   0.000
  Land-near-B48[7]-3         0.00       0.00       0.00       0.00       0.00       0.00       0.00        0.00     0.00   0.000
  Land-near-B48[8]-1         0.00       0.00       0.00       0.00       0.00       0.00       0.00        0.00     0.00   0.000
  Land-near-B49[1]-1         0.00       0.00       0.00       0.00       0.00       0.00       0.00        0.00     0.00   0.000
  Land-near-B49[1]-2         0.00       0.00       0.00       0.00       0.00       0.00       0.00        0.00     0.00   0.000
  Land-near-B49[1]-3         0.00       0.00       0.00       0.00       0.00       0.00       0.00        0.00     0.00   0.000
  Land-near-B49[1]-4         0.00       0.00       0.00       0.00       0.00       0.00       0.00        0.00     0.00   0.000
  Land-near-B49[1]-5         0.00       0.00       0.00       0.00       0.00       0.00       0.00        0.00     0.00   0.000
  Land-near-B49[1]-6         0.00       0.00       0.00       0.00       0.00       0.00       0.00        0.00     0.00   0.000
  Land-near-B51-10           0.00       0.00       0.00       0.00       0.00       0.00       0.00        0.00     0.00   0.000
  Land-near-B51-11           0.00       0.00       0.00       0.00       0.00       0.00       0.00        0.00     0.00   0.000
  Land-near-B51-12           0.00       0.00       0.00       0.00       0.00       0.00       0.00        0.00     0.00   0.000
  Land-near-B51-13           0.00       0.00       0.00       0.00       0.00       0.00       0.00        0.00     0.00   0.000
  Land-near-B51-14           0.00       0.00       0.00       0.00       0.00       0.00       0.00        0.00     0.00   0.000
  Land-near-B51-16           0.00       0.00       0.00       0.00       0.00       0.00       0.00        0.00     0.00   0.000
  Land-near-B52[9]-1         0.00       0.00       0.00       0.00       0.00       0.00       0.00        0.00     0.00   0.000
  Land-near-B52[9]-11        0.00       0.00       0.00       0.00       0.00       0.00       0.00        0.00     0.00   0.000
  Land-near-B52[9]-12        0.00       0.00       0.00       0.00       0.00       0.00       0.00        0.00     0.00   0.000
  Land-near-B52[9]-2         0.00       0.00       0.00       0.00       0.00       0.00       0.00        0.00     0.00   0.000
  Land-near-B52[9]-3         0.00       0.00       0.00       0.00       0.00       0.00       0.00        0.00     0.00   0.000
  Land-near-B52[9]-4         0.00       0.00       0.00       0.00       0.00       0.00       0.00        0.00     0.00   0.000
  Land-near-B52[9]-5         0.00       0.00       0.00       0.00       0.00       0.00       0.00        0.00     0.00   0.000
  Land-near-B52[9]-6         0.00       0.00       0.00       0.00       0.00       0.00       0.00        0.00     0.00   0.000
  Land-near-B52[9]-7         0.00       0.00       0.00       0.00       0.00       0.00       0.00        0.00     0.00   0.000
  Land-near-B55[1]-2         0.00       0.00       0.00       0.00       0.00       0.00       0.00        0.00     0.00   0.000
  Land-near-B55[9]-1         0.00       0.00       0.00       0.00       0.00       0.00       0.00        0.00     0.00   0.000
  Land-near-B55[9]-10        0.00       0.00       0.00       0.00       0.00       0.00       0.00        0.00     0.00   0.000
  Land-near-B55[9]-9         0.00       0.00       0.00       0.00       0.00       0.00       0.00        0.00     0.00   0.000
  Land-near-B56-1            0.00       0.00       0.00       0.00       0.00       0.00       0.00        0.00     0.00   0.000
  Land-near-B56-2            0.00       0.00       0.00       0.00       0.00       0.00       0.00        0.00     0.00   0.000
  Land-near-B56-3            0.00       0.00       0.00       0.00       0.00       0.00       0.00        0.00     0.00   0.000
  Land-near-B6-1             0.00       0.00       0.00       0.00       0.00       0.00       0.00        0.00     0.00   0.000
  Land-near-B6-4             0.00       0.00       0.00       0.00       0.00       0.00       0.00        0.00     0.00   0.000
  Land-near-B6-5             0.00       0.00       0.00       0.00       0.00       0.00       0.00        0.00     0.00   0.000
  land-near-B7-1             0.00       0.00       0.00       0.00       0.00       0.00       0.00        0.00     0.00   0.000
  land-near-B7-2             0.00       0.00       0.00       0.00       0.00       0.00       0.00        0.00     0.00   0.000
  land-near-B7-3             0.00       0.00       0.00       0.00       0.00       0.00       0.00        0.00     0.00   0.000
  Land-near-B8-1             0.00       0.00       0.00       0.00       0.00       0.00       0.00        0.00     0.00   0.000
  Land-near-B8-2             0.00       0.00       0.00       0.00       0.00       0.00       0.00        0.00     0.00   0.000
  Land-near-B9-1             0.00       0.00       0.00       0.00       0.00       0.00       0.00        0.00     0.00   0.000
  Land-near-B9-12            0.00       0.00       0.00       0.00       0.00       0.00       0.00        0.00     0.00   0.000
  Land-near-B9-13            0.00       0.00       0.00       0.00       0.00       0.00       0.00        0.00     0.00   0.000
  Land-near-B9-3             0.00       0.00       0.00       0.00       0.00       0.00       0.00        0.00     0.00   0.000
  Land-near-B9-5             0.00       0.00       0.00       0.00       0.00       0.00       0.00        0.00     0.00   0.000
  Land-near-B9-6             0.00       0.00       0.00       0.00       0.00       0.00       0.00        0.00     0.00   0.000
  Land-near-B9-8             0.00       0.00       0.00       0.00       0.00       0.00       0.00        0.00     0.00   0.000
  Land-near-B9-9             0.00       0.00       0.00       0.00       0.00       0.00       0.00        0.00     0.00   0.000
  Land-near-Parking-X-2-1       0.00       0.00       0.00       0.00       0.00       0.00       0.00        0.00     0.00   0.000
  Land-near-Parking-X-2-2       0.00       0.00       0.00       0.00       0.00       0.00       0.00        0.00     0.00   0.000
  Land-near-Parking-X-2-3       0.00       0.00       0.00       0.00       0.00       0.00       0.00        0.00     0.00   0.000
  Land-near-sump1-1          0.00       0.00       0.00       0.00       0.00       0.00       0.00        0.00     0.00   0.000
  Land-near-sump1-2          0.00       0.00       0.00       0.00       0.00       0.00       0.00        0.00     0.00   0.000
  Land-near-sump1-3          0.00       0.00       0.00       0.00       0.00       0.00       0.00        0.00     0.00   0.000
  Land-near-sump2-1          0.00       0.00       0.00       0.00       0.00       0.00       0.00        0.00     0.00   0.000
  Land-near-sump2-2          0.00       0.00       0.00       0.00       0.00       0.00       0.00        0.00     0.00   0.000
  Land-sport-near-B52        0.00       0.00       0.00       0.00       0.00       0.00       0.00        0.00     0.00   0.000
  Parking1-1                 0.00       0.00       0.00       0.00       0.00       0.00       0.00        0.00     0.00   0.000
  Parking1-2                 0.00       0.00       0.00       0.00       0.00       0.00       0.00        0.00     0.00   0.000
  Parking-57/1               0.00       0.00       0.00       0.00       0.00       0.00       0.00        0.00     0.00   0.000
  Parking-57/2               0.00       0.00       0.00       0.00       0.00       0.00       0.00        0.00     0.00   0.000
  Parking-57/3               0.00       0.00       0.00       0.00       0.00       0.00       0.00        0.00     0.00   0.000
  Parking-57/4               0.00       0.00       0.00       0.00       0.00       0.00       0.00        0.00     0.00   0.000
  Parking-B42[3]-1           0.00       0.00       0.00       0.00       0.00       0.00       0.00        0.00     0.00   0.000
  Parking-B42[3]-2           0.00       0.00       0.00       0.00       0.00       0.00       0.00        0.00     0.00   0.000
  Parking-B42[3]-3           0.00       0.00       0.00       0.00       0.00       0.00       0.00        0.00     0.00   0.000
  Parking-B42[4]-1           0.00       0.00       0.00       0.00       0.00       0.00       0.00        0.00     0.00   0.000
  Parking-B42[4]-2           0.00       0.00       0.00       0.00       0.00       0.00       0.00        0.00     0.00   0.000
  Parking-B42[4]-3           0.00       0.00       0.00       0.00       0.00       0.00       0.00        0.00     0.00   0.000
  Parking-B42[4]-4           0.00       0.00       0.00       0.00       0.00       0.00       0.00        0.00     0.00   0.000
  Parking-B42-1              0.00       0.00       0.00       0.00       0.00       0.00       0.00        0.00     0.00   0.000
  Parking-B42-2              0.00       0.00       0.00       0.00       0.00       0.00       0.00        0.00     0.00   0.000
  Parking-B42-3              0.00       0.00       0.00       0.00       0.00       0.00       0.00        0.00     0.00   0.000
  Parking-B42-4              0.00       0.00       0.00       0.00       0.00       0.00       0.00        0.00     0.00   0.000
  Parking-near-B3-1          0.00       0.00       0.00       0.00       0.00       0.00       0.00        0.00     0.00   0.000
  Parking-near-B3-2          0.00       0.00       0.00       0.00       0.00       0.00       0.00        0.00     0.00   0.000
  Parking-near-B3-3          0.00       0.00       0.00       0.00       0.00       0.00       0.00        0.00     0.00   0.000
  Parking-near-B3-4          0.00       0.00       0.00       0.00       0.00       0.00       0.00        0.00     0.00   0.000
  Parking-near-B51/1         0.00       0.00       0.00       0.00       0.00       0.00       0.00        0.00     0.00   0.000
  Parking-near-B51/2         0.00       0.00       0.00       0.00       0.00       0.00       0.00        0.00     0.00   0.000
  Parking-near-B51/3         0.00       0.00       0.00       0.00       0.00       0.00       0.00        0.00     0.00   0.000
  Parking-near-B51/4         0.00       0.00       0.00       0.00       0.00       0.00       0.00        0.00     0.00   0.000
  Parking-near-B51/5         0.00       0.00       0.00       0.00       0.00       0.00       0.00        0.00     0.00   0.000
  Parking-near-B51/6         0.00       0.00       0.00       0.00       0.00       0.00       0.00        0.00     0.00   0.000
  Parking-near-B9-1          0.00       0.00       0.00       0.00       0.00       0.00       0.00        0.00     0.00   0.000
  Parking-near-B9-2          0.00       0.00       0.00       0.00       0.00       0.00       0.00        0.00     0.00   0.000
  Parking-X-1                0.00       0.00       0.00       0.00       0.00       0.00       0.00        0.00     0.00   0.000
  Parking-X-2                0.00       0.00       0.00       0.00       0.00       0.00       0.00        0.00     0.00   0.000
  Parking-X-4/1              0.00       0.00       0.00       0.00       0.00       0.00       0.00        0.00     0.00   0.000
  Parking-X-4/2              0.00       0.00       0.00       0.00       0.00       0.00       0.00        0.00     0.00   0.000
  Parking-X-5                0.00       0.00       0.00       0.00       0.00       0.00       0.00        0.00     0.00   0.000
  Parking-X-8/1              0.00       0.00       0.00       0.00       0.00       0.00       0.00        0.00     0.00   0.000
  Parking-X-8/2              0.00       0.00       0.00       0.00       0.00       0.00       0.00        0.00     0.00   0.000
  Road-516                   0.00       0.00       0.00       0.00       0.00       0.00       0.00        0.00     0.00   0.000
  Road-517                   0.00       0.00       0.00       0.00       0.00       0.00       0.00        0.00     0.00   0.000
  Road-518                   0.00       0.00       0.00       0.00       0.00       0.00       0.00        0.00     0.00   0.000
  Road-520                   0.00       0.00       0.00       0.00       0.00       0.00       0.00        0.00     0.00   0.000
  Road-522                   0.00       0.00       0.00       0.00       0.00       0.00       0.00        0.00     0.00   0.000
  Road-524                   0.00       0.00       0.00       0.00       0.00       0.00       0.00        0.00     0.00   0.000
  Road-528                   0.00       0.00       0.00       0.00       0.00       0.00       0.00        0.00     0.00   0.000
  Road-529                   0.00       0.00       0.00       0.00       0.00       0.00       0.00        0.00     0.00   0.000
  Road-536                   0.00       0.00       0.00       0.00       0.00       0.00       0.00        0.00     0.00   0.000
  Road-539                   0.00       0.00       0.00       0.00       0.00       0.00       0.00        0.00     0.00   0.000
  Road-540                   0.00       0.00       0.00       0.00       0.00       0.00       0.00        0.00     0.00   0.000
  Road-541                   0.00       0.00       0.00       0.00       0.00       0.00       0.00        0.00     0.00   0.000
  Road-544                   0.00       0.00       0.00       0.00       0.00       0.00       0.00        0.00     0.00   0.000
  Road-545                   0.00       0.00       0.00       0.00       0.00       0.00       0.00        0.00     0.00   0.000
  Road-546                   0.00       0.00       0.00       0.00       0.00       0.00       0.00        0.00     0.00   0.000
  Road-547                   0.00       0.00       0.00       0.00       0.00       0.00       0.00        0.00     0.00   0.000
  Road-548                   0.00       0.00       0.00       0.00       0.00       0.00       0.00        0.00     0.00   0.000
  Road-553                   0.00       0.00       0.00       0.00       0.00       0.00       0.00        0.00     0.00   0.000
  Road-554                   0.00       0.00       0.00       0.00       0.00       0.00       0.00        0.00     0.00   0.000
  Road-599                   0.00       0.00       0.00       0.00       0.00       0.00       0.00        0.00     0.00   0.000
  Road-602                   0.00       0.00       0.00       0.00       0.00       0.00       0.00        0.00     0.00   0.000
  Road-672                   0.00       0.00       0.00       0.00       0.00       0.00       0.00        0.00     0.00   0.000
  Road-677                   0.00       0.00       0.00       0.00       0.00       0.00       0.00        0.00     0.00   0.000
  Road-749                   0.00       0.00       0.00       0.00       0.00       0.00       0.00        0.00     0.00   0.000
  Road-750                   0.00       0.00       0.00       0.00       0.00       0.00       0.00        0.00     0.00   0.000
  Road-751                   0.00       0.00       0.00       0.00       0.00       0.00       0.00        0.00     0.00   0.000
  Road-752                   0.00       0.00       0.00       0.00       0.00       0.00       0.00        0.00     0.00   0.000
  Road-754                   0.00       0.00       0.00       0.00       0.00       0.00       0.00        0.00     0.00   0.000
  Road-786                   0.00       0.00       0.00       0.00       0.00       0.00       0.00        0.00     0.00   0.000
  Road-863                   0.00       0.00       0.00       0.00       0.00       0.00       0.00        0.00     0.00   0.000
  Road-864                   0.00       0.00       0.00       0.00       0.00       0.00       0.00        0.00     0.00   0.000
  Road-865                   0.00       0.00       0.00       0.00       0.00       0.00       0.00        0.00     0.00   0.000
  Road-866                   0.00       0.00       0.00       0.00       0.00       0.00       0.00        0.00     0.00   0.000
  Road-871                   0.00       0.00       0.00       0.00       0.00       0.00       0.00        0.00     0.00   0.000
  Road-872                   0.00       0.00       0.00       0.00       0.00       0.00       0.00        0.00     0.00   0.000
  Road-874                   0.00       0.00       0.00       0.00       0.00       0.00       0.00        0.00     0.00   0.000
  Road-876                   0.00       0.00       0.00       0.00       0.00       0.00       0.00        0.00     0.00   0.000
  Road-877                   0.00       0.00       0.00       0.00       0.00       0.00       0.00        0.00     0.00   0.000
  Road-878                   0.00       0.00       0.00       0.00       0.00       0.00       0.00        0.00     0.00   0.000
  Road-879                   0.00       0.00       0.00       0.00       0.00       0.00       0.00        0.00     0.00   0.000
  Road-880                   0.00       0.00       0.00       0.00       0.00       0.00       0.00        0.00     0.00   0.000
  Road-913                   0.00       0.00       0.00       0.00       0.00       0.00       0.00        0.00     0.00   0.000
  Road-915                   0.00       0.00       0.00       0.00       0.00       0.00       0.00        0.00     0.00   0.000
  Road-916                   0.00       0.00       0.00       0.00       0.00       0.00       0.00        0.00     0.00   0.000
  Road-919                   0.00       0.00       0.00       0.00       0.00       0.00       0.00        0.00     0.00   0.000
  Road-924                   0.00       0.00       0.00       0.00       0.00       0.00       0.00        0.00     0.00   0.000
  Road-925                   0.00       0.00       0.00       0.00       0.00       0.00       0.00        0.00     0.00   0.000
  Road-926                   0.00       0.00       0.00       0.00       0.00       0.00       0.00        0.00     0.00   0.000
  Road-Concrete-5-1          0.00       0.00       0.00       0.00       0.00       0.00       0.00        0.00     0.00   0.000
  Road-Concrete-5-2          0.00       0.00       0.00       0.00       0.00       0.00       0.00        0.00     0.00   0.000
  Road-door1-0               0.00       0.00       0.00       0.00       0.00       0.00       0.00        0.00     0.00   0.000
  Road-door1-10              0.00       0.00       0.00       0.00       0.00       0.00       0.00        0.00     0.00   0.000
  Road-door1-13              0.00       0.00       0.00       0.00       0.00       0.00       0.00        0.00     0.00   0.000
  Road-door1-23-(house)       0.00       0.00       0.00       0.00       0.00       0.00       0.00        0.00     0.00   0.000
  Road-door1-56              0.00       0.00       0.00       0.00       0.00       0.00       0.00        0.00     0.00   0.000
  Road-door3-1               0.00       0.00       0.00       0.00       0.00       0.00       0.00        0.00     0.00   0.000
  Road-door3-10              0.00       0.00       0.00       0.00       0.00       0.00       0.00        0.00     0.00   0.000
  Road-door3-13              0.00       0.00       0.00       0.00       0.00       0.00       0.00        0.00     0.00   0.000
  Road-door3-14              0.00       0.00       0.00       0.00       0.00       0.00       0.00        0.00     0.00   0.000
  Road-door3-2               0.00       0.00       0.00       0.00       0.00       0.00       0.00        0.00     0.00   0.000
  Road-door3-3               0.00       0.00       0.00       0.00       0.00       0.00       0.00        0.00     0.00   0.000
  Road-door3-4               0.00       0.00       0.00       0.00       0.00       0.00       0.00        0.00     0.00   0.000
  Road-door3-5               0.00       0.00       0.00       0.00       0.00       0.00       0.00        0.00     0.00   0.000
  Road-door4-1               0.00       0.00       0.00       0.00       0.00       0.00       0.00        0.00     0.00   0.000
  Road-front-B1-1            0.00       0.00       0.00       0.00       0.00       0.00       0.00        0.00     0.00   0.000
  Road-front-B1-10           0.00       0.00       0.00       0.00       0.00       0.00       0.00        0.00     0.00   0.000
  Road-front-B1-11           0.00       0.00       0.00       0.00       0.00       0.00       0.00        0.00     0.00   0.000
  Road-front-B1-12           0.00       0.00       0.00       0.00       0.00       0.00       0.00        0.00     0.00   0.000
  Road-front-B1-13           0.00       0.00       0.00       0.00       0.00       0.00       0.00        0.00     0.00   0.000
  Road-front-B1-14           0.00       0.00       0.00       0.00       0.00       0.00       0.00        0.00     0.00   0.000
  Road-front-B1-16           0.00       0.00       0.00       0.00       0.00       0.00       0.00        0.00     0.00   0.000
  Road-front-B1-17           0.00       0.00       0.00       0.00       0.00       0.00       0.00        0.00     0.00   0.000
  Road-front-B1-18           0.00       0.00       0.00       0.00       0.00       0.00       0.00        0.00     0.00   0.000
  Road-front-B1-19           0.00       0.00       0.00       0.00       0.00       0.00       0.00        0.00     0.00   0.000
  Road-front-B1-2            0.00       0.00       0.00       0.00       0.00       0.00       0.00        0.00     0.00   0.000
  Road-front-B1-20           0.00       0.00       0.00       0.00       0.00       0.00       0.00        0.00     0.00   0.000
  Road-front-B1-22           0.00       0.00       0.00       0.00       0.00       0.00       0.00        0.00     0.00   0.000
  Road-front-B1-23           0.00       0.00       0.00       0.00       0.00       0.00       0.00        0.00     0.00   0.000
  Road-front-B1-24           0.00       0.00       0.00       0.00       0.00       0.00       0.00        0.00     0.00   0.000
  Road-front-B1-25           0.00       0.00       0.00       0.00       0.00       0.00       0.00        0.00     0.00   0.000
  Road-front-B1-26           0.00       0.00       0.00       0.00       0.00       0.00       0.00        0.00     0.00   0.000
  Road-front-B1-3            0.00       0.00       0.00       0.00       0.00       0.00       0.00        0.00     0.00   0.000
  Road-front-B1-4            0.00       0.00       0.00       0.00       0.00       0.00       0.00        0.00     0.00   0.000
  Road-front-B1-5            0.00       0.00       0.00       0.00       0.00       0.00       0.00        0.00     0.00   0.000
  Road-front-B1-6            0.00       0.00       0.00       0.00       0.00       0.00       0.00        0.00     0.00   0.000
  Road-front-B1-7            0.00       0.00       0.00       0.00       0.00       0.00       0.00        0.00     0.00   0.000
  Road-front-B1-9            0.00       0.00       0.00       0.00       0.00       0.00       0.00        0.00     0.00   0.000
  Road-link(down)-top9       0.00       0.00       0.00       0.00       0.00       0.00       0.00        0.00     0.00   0.000
  Road-near-B2-1             0.00       0.00       0.00       0.00       0.00       0.00       0.00        0.00     0.00   0.000
  Road-near-B2-2             0.00       0.00       0.00       0.00       0.00       0.00       0.00        0.00     0.00   0.000
  Road-near-B2-3             0.00       0.00       0.00       0.00       0.00       0.00       0.00        0.00     0.00   0.000
  Road-near-B2-4             0.00       0.00       0.00       0.00       0.00       0.00       0.00        0.00     0.00   0.000
  Road-near-B2-6             0.00       0.00       0.00       0.00       0.00       0.00       0.00        0.00     0.00   0.000
  Roof-202                   0.00       0.00       0.00       0.00       0.00       0.00       0.00        0.00     0.00   0.000
  Roof-207                   0.00       0.00       0.00       0.00       0.00       0.00       0.00        0.00     0.00   0.000
  Roof-241                   0.00       0.00       0.00       0.00       0.00       0.00       0.00        0.00     0.00   0.000
  Roof-25                    0.00       0.00       0.00       0.00       0.00       0.00       0.00        0.00     0.00   0.000
  Roof-278                   0.00       0.00       0.00       0.00       0.00       0.00       0.00        0.00     0.00   0.000
  Roof-B1/1                  0.00       0.00       0.00       0.00       0.00       0.00       0.00        0.00     0.00   0.000
  Roof-B1/2                  0.00       0.00       0.00       0.00       0.00       0.00       0.00        0.00     0.00   0.000
  Roof-B1/3                  0.00       0.00       0.00       0.00       0.00       0.00       0.00        0.00     0.00   0.000
  Roof-B1/4                  0.00       0.00       0.00       0.00       0.00       0.00       0.00        0.00     0.00   0.000
  Roof-B1/5                  0.00       0.00       0.00       0.00       0.00       0.00       0.00        0.00     0.00   0.000
  Roof-B1/6                  0.00       0.00       0.00       0.00       0.00       0.00       0.00        0.00     0.00   0.000
  Roof-B1/7                  0.00       0.00       0.00       0.00       0.00       0.00       0.00        0.00     0.00   0.000
  Roof-B1/8                  0.00       0.00       0.00       0.00       0.00       0.00       0.00        0.00     0.00   0.000
  Roof-B1/9                  0.00       0.00       0.00       0.00       0.00       0.00       0.00        0.00     0.00   0.000
  Roof-B10/1                 0.00       0.00       0.00       0.00       0.00       0.00       0.00        0.00     0.00   0.000
  Roof-B10/2                 0.00       0.00       0.00       0.00       0.00       0.00       0.00        0.00     0.00   0.000
  Roof-B10/3                 0.00       0.00       0.00       0.00       0.00       0.00       0.00        0.00     0.00   0.000
  Roof-B10/4                 0.00       0.00       0.00       0.00       0.00       0.00       0.00        0.00     0.00   0.000
  Roof-B10/5                 0.00       0.00       0.00       0.00       0.00       0.00       0.00        0.00     0.00   0.000
  Roof-B10/6                 0.00       0.00       0.00       0.00       0.00       0.00       0.00        0.00     0.00   0.000
  Roof-B10/7                 0.00       0.00       0.00       0.00       0.00       0.00       0.00        0.00     0.00   0.000
  Roof-B10/8                 0.00       0.00       0.00       0.00       0.00       0.00       0.00        0.00     0.00   0.000
  Roof-B11/1                 0.00       0.00       0.00       0.00       0.00       0.00       0.00        0.00     0.00   0.000
  Roof-B11/4                 0.00       0.00       0.00       0.00       0.00       0.00       0.00        0.00     0.00   0.000
  Roof-B11/5                 0.00       0.00       0.00       0.00       0.00       0.00       0.00        0.00     0.00   0.000
  Roof-B11/7                 0.00       0.00       0.00       0.00       0.00       0.00       0.00        0.00     0.00   0.000
  Roof-B12/1                 0.00       0.00       0.00       0.00       0.00       0.00       0.00        0.00     0.00   0.000
  Roof-B12/2                 0.00       0.00       0.00       0.00       0.00       0.00       0.00        0.00     0.00   0.000
  Roof-B12/3                 0.00       0.00       0.00       0.00       0.00       0.00       0.00        0.00     0.00   0.000
  Roof-B12/4                 0.00       0.00       0.00       0.00       0.00       0.00       0.00        0.00     0.00   0.000
  Roof-B12/5                 0.00       0.00       0.00       0.00       0.00       0.00       0.00        0.00     0.00   0.000
  Roof-B12/6                 0.00       0.00       0.00       0.00       0.00       0.00       0.00        0.00     0.00   0.000
  Roof-B12/7                 0.00       0.00       0.00       0.00       0.00       0.00       0.00        0.00     0.00   0.000
  Roof-B12/8                 0.00       0.00       0.00       0.00       0.00       0.00       0.00        0.00     0.00   0.000
  Roof-B13/1                 0.00       0.00       0.00       0.00       0.00       0.00       0.00        0.00     0.00   0.000
  Roof-B13/2                 0.00       0.00       0.00       0.00       0.00       0.00       0.00        0.00     0.00   0.000
  Roof-B13/3                 0.00       0.00       0.00       0.00       0.00       0.00       0.00        0.00     0.00   0.000
  Roof-B13/4                 0.00       0.00       0.00       0.00       0.00       0.00       0.00        0.00     0.00   0.000
  Roof-B14/1                 0.00       0.00       0.00       0.00       0.00       0.00       0.00        0.00     0.00   0.000
  Roof-B14/2                 0.00       0.00       0.00       0.00       0.00       0.00       0.00        0.00     0.00   0.000
  Roof-B14/3                 0.00       0.00       0.00       0.00       0.00       0.00       0.00        0.00     0.00   0.000
  Roof-B14/4                 0.00       0.00       0.00       0.00       0.00       0.00       0.00        0.00     0.00   0.000
  Roof-B14/5                 0.00       0.00       0.00       0.00       0.00       0.00       0.00        0.00     0.00   0.000
  Roof-B14/6                 0.00       0.00       0.00       0.00       0.00       0.00       0.00        0.00     0.00   0.000
  Roof-B15/1                 0.00       0.00       0.00       0.00       0.00       0.00       0.00        0.00     0.00   0.000
  Roof-B15/2                 0.00       0.00       0.00       0.00       0.00       0.00       0.00        0.00     0.00   0.000
  Roof-B16/1                 0.00       0.00       0.00       0.00       0.00       0.00       0.00        0.00     0.00   0.000
  Roof-B16/2                 0.00       0.00       0.00       0.00       0.00       0.00       0.00        0.00     0.00   0.000
  Roof-B16/3                 0.00       0.00       0.00       0.00       0.00       0.00       0.00        0.00     0.00   0.000
  Roof-B16/4                 0.00       0.00       0.00       0.00       0.00       0.00       0.00        0.00     0.00   0.000
  Roof-B18/1                 0.00       0.00       0.00       0.00       0.00       0.00       0.00        0.00     0.00   0.000
  Roof-B18/2                 0.00       0.00       0.00       0.00       0.00       0.00       0.00        0.00     0.00   0.000
  Roof-B18/3                 0.00       0.00       0.00       0.00       0.00       0.00       0.00        0.00     0.00   0.000
  Roof-B18/4                 0.00       0.00       0.00       0.00       0.00       0.00       0.00        0.00     0.00   0.000
  Roof-B18/5                 0.00       0.00       0.00       0.00       0.00       0.00       0.00        0.00     0.00   0.000
  Roof-B19/1                 0.00       0.00       0.00       0.00       0.00       0.00       0.00        0.00     0.00   0.000
  Roof-B19/2                 0.00       0.00       0.00       0.00       0.00       0.00       0.00        0.00     0.00   0.000
  Roof-B19/3                 0.00       0.00       0.00       0.00       0.00       0.00       0.00        0.00     0.00   0.000
  Roof-B20/1                 0.00       0.00       0.00       0.00       0.00       0.00       0.00        0.00     0.00   0.000
  Roof-B20/2                 0.00       0.00       0.00       0.00       0.00       0.00       0.00        0.00     0.00   0.000
  Roof-B20/3                 0.00       0.00       0.00       0.00       0.00       0.00       0.00        0.00     0.00   0.000
  Roof-B20/4                 0.00       0.00       0.00       0.00       0.00       0.00       0.00        0.00     0.00   0.000
  Roof-B20/5                 0.00       0.00       0.00       0.00       0.00       0.00       0.00        0.00     0.00   0.000
  Roof-B20/6                 0.00       0.00       0.00       0.00       0.00       0.00       0.00        0.00     0.00   0.000
  Roof-B20/7                 0.00       0.00       0.00       0.00       0.00       0.00       0.00        0.00     0.00   0.000
  Roof-B20/8                 0.00       0.00       0.00       0.00       0.00       0.00       0.00        0.00     0.00   0.000
  Roof-B20/9                 0.00       0.00       0.00       0.00       0.00       0.00       0.00        0.00     0.00   0.000
  Roof-B2-1                  0.00       0.00       0.00       0.00       0.00       0.00       0.00        0.00     0.00   0.000
  Roof-B21/1                 0.00       0.00       0.00       0.00       0.00       0.00       0.00        0.00     0.00   0.000
  Roof-B21/2                 0.00       0.00       0.00       0.00       0.00       0.00       0.00        0.00     0.00   0.000
  Roof-B21/3                 0.00       0.00       0.00       0.00       0.00       0.00       0.00        0.00     0.00   0.000
  Roof-B2-10                 0.00       0.00       0.00       0.00       0.00       0.00       0.00        0.00     0.00   0.000
  Roof-B2-11                 0.00       0.00       0.00       0.00       0.00       0.00       0.00        0.00     0.00   0.000
  Roof-B2-12                 0.00       0.00       0.00       0.00       0.00       0.00       0.00        0.00     0.00   0.000
  Roof-B2-13                 0.00       0.00       0.00       0.00       0.00       0.00       0.00        0.00     0.00   0.000
  Roof-B2-2                  0.00       0.00       0.00       0.00       0.00       0.00       0.00        0.00     0.00   0.000
  Roof-B2-3                  0.00       0.00       0.00       0.00       0.00       0.00       0.00        0.00     0.00   0.000
  Roof-B23/1                 0.00       0.00       0.00       0.00       0.00       0.00       0.00        0.00     0.00   0.000
  Roof-B23/2                 0.00       0.00       0.00       0.00       0.00       0.00       0.00        0.00     0.00   0.000
  Roof-B24/1                 0.00       0.00       0.00       0.00       0.00       0.00       0.00        0.00     0.00   0.000
  Roof-B24/2                 0.00       0.00       0.00       0.00       0.00       0.00       0.00        0.00     0.00   0.000
  Roof-B24/3                 0.00       0.00       0.00       0.00       0.00       0.00       0.00        0.00     0.00   0.000
  Roof-B24/4                 0.00       0.00       0.00       0.00       0.00       0.00       0.00        0.00     0.00   0.000
  Roof-B-25                  0.00       0.00       0.00       0.00       0.00       0.00       0.00        0.00     0.00   0.000
  Roof-B2-5                  0.00       0.00       0.00       0.00       0.00       0.00       0.00        0.00     0.00   0.000
  Roof-B2-6                  0.00       0.00       0.00       0.00       0.00       0.00       0.00        0.00     0.00   0.000
  Roof-B26-1                 0.00       0.00       0.00       0.00       0.00       0.00       0.00        0.00     0.00   0.000
  Roof-B26-2                 0.00       0.00       0.00       0.00       0.00       0.00       0.00        0.00     0.00   0.000
  Roof-B2-7                  0.00       0.00       0.00       0.00       0.00       0.00       0.00        0.00     0.00   0.000
  Roof-B27-1                 0.00       0.00       0.00       0.00       0.00       0.00       0.00        0.00     0.00   0.000
  Roof-B27-3                 0.00       0.00       0.00       0.00       0.00       0.00       0.00        0.00     0.00   0.000
  Roof-B2-8                  0.00       0.00       0.00       0.00       0.00       0.00       0.00        0.00     0.00   0.000
  Roof-B28-1                 0.00       0.00       0.00       0.00       0.00       0.00       0.00        0.00     0.00   0.000
  Roof-B28-2                 0.00       0.00       0.00       0.00       0.00       0.00       0.00        0.00     0.00   0.000
  Roof-B2-9                  0.00       0.00       0.00       0.00       0.00       0.00       0.00        0.00     0.00   0.000
  Roof-B29-1                 0.00       0.00       0.00       0.00       0.00       0.00       0.00        0.00     0.00   0.000
  Roof-B29-2                 0.00       0.00       0.00       0.00       0.00       0.00       0.00        0.00     0.00   0.000
  Roof-B3/1                  0.00       0.00       0.00       0.00       0.00       0.00       0.00        0.00     0.00   0.000
  Roof-B3/2                  0.00       0.00       0.00       0.00       0.00       0.00       0.00        0.00     0.00   0.000
  Roof-B3/3                  0.00       0.00       0.00       0.00       0.00       0.00       0.00        0.00     0.00   0.000
  Roof-B3/4                  0.00       0.00       0.00       0.00       0.00       0.00       0.00        0.00     0.00   0.000
  Roof-B3/5                  0.00       0.00       0.00       0.00       0.00       0.00       0.00        0.00     0.00   0.000
  Roof-B3/6                  0.00       0.00       0.00       0.00       0.00       0.00       0.00        0.00     0.00   0.000
  Roof-B37/1                 0.00       0.00       0.00       0.00       0.00       0.00       0.00        0.00     0.00   0.000
  Roof-B37/2                 0.00       0.00       0.00       0.00       0.00       0.00       0.00        0.00     0.00   0.000
  Roof-B37/3                 0.00       0.00       0.00       0.00       0.00       0.00       0.00        0.00     0.00   0.000
  Roof-B4/1                  0.00       0.00       0.00       0.00       0.00       0.00       0.00        0.00     0.00   0.000
  Roof-B4/2                  0.00       0.00       0.00       0.00       0.00       0.00       0.00        0.00     0.00   0.000
  Roof-B4/3                  0.00       0.00       0.00       0.00       0.00       0.00       0.00        0.00     0.00   0.000
  Roof-B4/4                  0.00       0.00       0.00       0.00       0.00       0.00       0.00        0.00     0.00   0.000
  Roof-B4/5                  0.00       0.00       0.00       0.00       0.00       0.00       0.00        0.00     0.00   0.000
  Roof-B4/6                  0.00       0.00       0.00       0.00       0.00       0.00       0.00        0.00     0.00   0.000
  Roof-B4/7                  0.00       0.00       0.00       0.00       0.00       0.00       0.00        0.00     0.00   0.000
  Roof-B44-1                 0.00       0.00       0.00       0.00       0.00       0.00       0.00        0.00     0.00   0.000
  Roof-B44-2                 0.00       0.00       0.00       0.00       0.00       0.00       0.00        0.00     0.00   0.000
  Roof-B45[1]-1              0.00       0.00       0.00       0.00       0.00       0.00       0.00        0.00     0.00   0.000
  Roof-B45[1]-2              0.00       0.00       0.00       0.00       0.00       0.00       0.00        0.00     0.00   0.000
  Roof-B45[5]/1              0.00       0.00       0.00       0.00       0.00       0.00       0.00        0.00     0.00   0.000
  Roof-B45[5]/2              0.00       0.00       0.00       0.00       0.00       0.00       0.00        0.00     0.00   0.000
  Roof-B45[5]/3              0.00       0.00       0.00       0.00       0.00       0.00       0.00        0.00     0.00   0.000
  Roof-B45[5]/4              0.00       0.00       0.00       0.00       0.00       0.00       0.00        0.00     0.00   0.000
  Roof-B46[2]                0.00       0.00       0.00       0.00       0.00       0.00       0.00        0.00     0.00   0.000
  Roof-B46[2]-1              0.00       0.00       0.00       0.00       0.00       0.00       0.00        0.00     0.00   0.000
  Roof-B46[2]-2              0.00       0.00       0.00       0.00       0.00       0.00       0.00        0.00     0.00   0.000
  Roof-B46[2]-3              0.00       0.00       0.00       0.00       0.00       0.00       0.00        0.00     0.00   0.000
  Roof-B47-1                 0.00       0.00       0.00       0.00       0.00       0.00       0.00        0.00     0.00   0.000
  Roof-B47-2                 0.00       0.00       0.00       0.00       0.00       0.00       0.00        0.00     0.00   0.000
  Roof-B48[1]/1              0.00       0.00       0.00       0.00       0.00       0.00       0.00        0.00     0.00   0.000
  Roof-B48[1]-2              0.00       0.00       0.00       0.00       0.00       0.00       0.00        0.00     0.00   0.000
  Roof-B-48[2]               0.00       0.00       0.00       0.00       0.00       0.00       0.00        0.00     0.00   0.000
  Roof-B-48[3]               0.00       0.00       0.00       0.00       0.00       0.00       0.00        0.00     0.00   0.000
  Roof-B48[5]                0.00       0.00       0.00       0.00       0.00       0.00       0.00        0.00     0.00   0.000
  Roof-B48[6]                0.00       0.00       0.00       0.00       0.00       0.00       0.00        0.00     0.00   0.000
  Roof-B48[7]                0.00       0.00       0.00       0.00       0.00       0.00       0.00        0.00     0.00   0.000
  Roof-B-48[9]               0.00       0.00       0.00       0.00       0.00       0.00       0.00        0.00     0.00   0.000
  Roof-B49[1]/1              0.00       0.00       0.00       0.00       0.00       0.00       0.00        0.00     0.00   0.000
  Roof-B49[1]/2              0.00       0.00       0.00       0.00       0.00       0.00       0.00        0.00     0.00   0.000
  Roof-B49[1]/3              0.00       0.00       0.00       0.00       0.00       0.00       0.00        0.00     0.00   0.000
  Roof-B49[1]/4              0.00       0.00       0.00       0.00       0.00       0.00       0.00        0.00     0.00   0.000
  Roof-B49[1]/5              0.00       0.00       0.00       0.00       0.00       0.00       0.00        0.00     0.00   0.000
  Roof-B49[1]/6              0.00       0.00       0.00       0.00       0.00       0.00       0.00        0.00     0.00   0.000
  Roof-B49[2]/1              0.00       0.00       0.00       0.00       0.00       0.00       0.00        0.00     0.00   0.000
  Roof-B49[2]/2              0.00       0.00       0.00       0.00       0.00       0.00       0.00        0.00     0.00   0.000
  Roof-B49[2]/3              0.00       0.00       0.00       0.00       0.00       0.00       0.00        0.00     0.00   0.000
  Roof-B49[2]/4              0.00       0.00       0.00       0.00       0.00       0.00       0.00        0.00     0.00   0.000
  Roof-B49[2]/5              0.00       0.00       0.00       0.00       0.00       0.00       0.00        0.00     0.00   0.000
  Roof-B49[2]/6              0.00       0.00       0.00       0.00       0.00       0.00       0.00        0.00     0.00   0.000
  Roof-B49[3]/1              0.00       0.00       0.00       0.00       0.00       0.00       0.00        0.00     0.00   0.000
  Roof-B49[3]/2              0.00       0.00       0.00       0.00       0.00       0.00       0.00        0.00     0.00   0.000
  Roof-B49[3]/3              0.00       0.00       0.00       0.00       0.00       0.00       0.00        0.00     0.00   0.000
  Roof-B49[3]/4              0.00       0.00       0.00       0.00       0.00       0.00       0.00        0.00     0.00   0.000
  Roof-B49[3]/5              0.00       0.00       0.00       0.00       0.00       0.00       0.00        0.00     0.00   0.000
  Roof-B49[3]/6              0.00       0.00       0.00       0.00       0.00       0.00       0.00        0.00     0.00   0.000
  Roof-B49[4]/1              0.00       0.00       0.00       0.00       0.00       0.00       0.00        0.00     0.00   0.000
  Roof-B49[4]/2              0.00       0.00       0.00       0.00       0.00       0.00       0.00        0.00     0.00   0.000
  Roof-B49[4]/3              0.00       0.00       0.00       0.00       0.00       0.00       0.00        0.00     0.00   0.000
  Roof-B5/1                  0.00       0.00       0.00       0.00       0.00       0.00       0.00        0.00     0.00   0.000
  Roof-B5/2                  0.00       0.00       0.00       0.00       0.00       0.00       0.00        0.00     0.00   0.000
  Roof-B5/3                  0.00       0.00       0.00       0.00       0.00       0.00       0.00        0.00     0.00   0.000
  Roof-B5/4                  0.00       0.00       0.00       0.00       0.00       0.00       0.00        0.00     0.00   0.000
  Roof-B51/1                 0.00       0.00       0.00       0.00       0.00       0.00       0.00        0.00     0.00   0.000
  Roof-B51/2                 0.00       0.00       0.00       0.00       0.00       0.00       0.00        0.00     0.00   0.000
  Roof-B51/3                 0.00       0.00       0.00       0.00       0.00       0.00       0.00        0.00     0.00   0.000
  Roof-B51/4                 0.00       0.00       0.00       0.00       0.00       0.00       0.00        0.00     0.00   0.000
  Roof-B51/5                 0.00       0.00       0.00       0.00       0.00       0.00       0.00        0.00     0.00   0.000
  Roof-B51/6                 0.00       0.00       0.00       0.00       0.00       0.00       0.00        0.00     0.00   0.000
  Roof-B51/7                 0.00       0.00       0.00       0.00       0.00       0.00       0.00        0.00     0.00   0.000
  Roof-B52[9]/1              0.00       0.00       0.00       0.00       0.00       0.00       0.00        0.00     0.00   0.000
  Roof-B52[9]/2              0.00       0.00       0.00       0.00       0.00       0.00       0.00        0.00     0.00   0.000
  Roof-B52[9]/3              0.00       0.00       0.00       0.00       0.00       0.00       0.00        0.00     0.00   0.000
  Roof-B52[9]/4              0.00       0.00       0.00       0.00       0.00       0.00       0.00        0.00     0.00   0.000
  Roof-B52[9]/5              0.00       0.00       0.00       0.00       0.00       0.00       0.00        0.00     0.00   0.000
  Roof-B52[9]/6              0.00       0.00       0.00       0.00       0.00       0.00       0.00        0.00     0.00   0.000
  Roof-B55                   0.00       0.00       0.00       0.00       0.00       0.00       0.00        0.00     0.00   0.000
  Roof-B55[2]/1              0.00       0.00       0.00       0.00       0.00       0.00       0.00        0.00     0.00   0.000
  Roof-B55[2]/2              0.00       0.00       0.00       0.00       0.00       0.00       0.00        0.00     0.00   0.000
  Roof-B55[2]/3              0.00       0.00       0.00       0.00       0.00       0.00       0.00        0.00     0.00   0.000
  Roof-B55[2]/4              0.00       0.00       0.00       0.00       0.00       0.00       0.00        0.00     0.00   0.000
  Roof-B56                   0.00       0.00       0.00       0.00       0.00       0.00       0.00        0.00     0.00   0.000
  Roof-B6                    0.00       0.00       0.00       0.00       0.00       0.00       0.00        0.00     0.00   0.000
  Roof-B7/1                  0.00       0.00       0.00       0.00       0.00       0.00       0.00        0.00     0.00   0.000
  Roof-B7/2                  0.00       0.00       0.00       0.00       0.00       0.00       0.00        0.00     0.00   0.000
  Roof-B7/3                  0.00       0.00       0.00       0.00       0.00       0.00       0.00        0.00     0.00   0.000
  Roof-B8                    0.00       0.00       0.00       0.00       0.00       0.00       0.00        0.00     0.00   0.000
  Roof-B9/1                  0.00       0.00       0.00       0.00       0.00       0.00       0.00        0.00     0.00   0.000
  Roof-B9/2                  0.00       0.00       0.00       0.00       0.00       0.00       0.00        0.00     0.00   0.000
  Roof-B9/3                  0.00       0.00       0.00       0.00       0.00       0.00       0.00        0.00     0.00   0.000
  Roof-B9/4                  0.00       0.00       0.00       0.00       0.00       0.00       0.00        0.00     0.00   0.000
  Roof-B9/5                  0.00       0.00       0.00       0.00       0.00       0.00       0.00        0.00     0.00   0.000
  Roof-B9/6                  0.00       0.00       0.00       0.00       0.00       0.00       0.00        0.00     0.00   0.000
  Roof-B-boiler/1            0.00       0.00       0.00       0.00       0.00       0.00       0.00        0.00     0.00   0.000
  Roof-Building11-1          0.00       0.00       0.00       0.00       0.00       0.00       0.00        0.00     0.00   0.000
[...]
  W-1-L-M103to102         1.00   -nan(ind)  -nan(ind)  -nan(ind)  -nan(ind)  -nan(ind)  -nan(ind)  -nan(ind)  -nan(ind)  -nan(ind)
  W-1-L-M103to102(main)    1.00   -nan(ind)  -nan(ind)  -nan(ind)  -nan(ind)  -nan(ind)  -nan(ind)  -nan(ind)  -nan(ind)  -nan(ind)
  W-1-L-M104-L101-L101tomain    1.00   -nan(ind)  -nan(ind)  -nan(ind)  -nan(ind)  -nan(ind)  -nan(ind)  -nan(ind)  -nan(ind)  -nan(ind)
  W-1-L-M104-L101-L102to101    1.00   -nan(ind)  -nan(ind)  -nan(ind)  -nan(ind)  -nan(ind)  -nan(ind)  -nan(ind)  -nan(ind)  -nan(ind)
  W-1-L-M104-L101-L103to102    1.00   -nan(ind)  -nan(ind)  -nan(ind)  -nan(ind)  -nan(ind)  -nan(ind)  -nan(ind)  -nan(ind)  -nan(ind)
  W-1-L-M104-L101-L201tomain    1.00   -nan(ind)  -nan(ind)  -nan(ind)  -nan(ind)  -nan(ind)  -nan(ind)  -nan(ind)  -nan(ind)  -nan(ind)
  W-1-L-M104-L101-L202to201    1.00   -nan(ind)  -nan(ind)  -nan(ind)  -nan(ind)  -nan(ind)  -nan(ind)  -nan(ind)  -nan(ind)  -nan(ind)
  W-1-L-M104-L101tomain    1.00   -nan(ind)  -nan(ind)  -nan(ind)  -nan(ind)  -nan(ind)  -nan(ind)  -nan(ind)  -nan(ind)  -nan(ind)
  W-1-L-M104-L102to101    1.00   -nan(ind)  -nan(ind)  -nan(ind)  -nan(ind)  -nan(ind)  -nan(ind)  -nan(ind)  -nan(ind)  -nan(ind)
  W-1-L-M104-L103to102    1.00   -nan(ind)  -nan(ind)  -nan(ind)  -nan(ind)  -nan(ind)  -nan(ind)  -nan(ind)  -nan(ind)  -nan(ind)
  W-1-L-M104to103         1.00   -nan(ind)  -nan(ind)  -nan(ind)  -nan(ind)  -nan(ind)  -nan(ind)  -nan(ind)  -nan(ind)  -nan(ind)
  W-1-L-M105-L101tomain    1.00   -nan(ind)  -nan(ind)  -nan(ind)  -nan(ind)  -nan(ind)  -nan(ind)  -nan(ind)  -nan(ind)  -nan(ind)
  W-1-L-M105-L102to101    1.00   -nan(ind)  -nan(ind)  -nan(ind)  -nan(ind)  -nan(ind)  -nan(ind)  -nan(ind)  -nan(ind)  -nan(ind)
  W-1-L-M105-L201tomain    1.00   -nan(ind)  -nan(ind)  -nan(ind)  -nan(ind)  -nan(ind)  -nan(ind)  -nan(ind)  -nan(ind)  -nan(ind)
  W-1-L-M105-L202to201    1.00   -nan(ind)  -nan(ind)  -nan(ind)  -nan(ind)  -nan(ind)  -nan(ind)  -nan(ind)  -nan(ind)  -nan(ind)
  W-1-L-M105-L203to202    1.00   -nan(ind)  -nan(ind)  -nan(ind)  -nan(ind)  -nan(ind)  -nan(ind)  -nan(ind)  -nan(ind)  -nan(ind)
  W-1-L-M105to104         1.00   -nan(ind)  -nan(ind)  -nan(ind)  -nan(ind)  -nan(ind)  -nan(ind)  -nan(ind)  -nan(ind)  -nan(ind)
  W-1-L-M106-01/endtomain    1.00   -nan(ind)  -nan(ind)  -nan(ind)  -nan(ind)  -nan(ind)  -nan(ind)  -nan(ind)  -nan(ind)  -nan(ind)
  W-1-L-M106to105         1.00   -nan(ind)  -nan(ind)  -nan(ind)  -nan(ind)  -nan(ind)  -nan(ind)  -nan(ind)  -nan(ind)  -nan(ind)
  W-1-L-M107to107-01      1.00   -nan(ind)  -nan(ind)  -nan(ind)  -nan(ind)  -nan(ind)  -nan(ind)  -nan(ind)  -nan(ind)  -nan(ind)
  W-1-L-M108to107         1.00   -nan(ind)  -nan(ind)  -nan(ind)  -nan(ind)  -nan(ind)  -nan(ind)  -nan(ind)  -nan(ind)  -nan(ind)
  W-1-L-M109to108         1.00   -nan(ind)  -nan(ind)  -nan(ind)  -nan(ind)  -nan(ind)  -nan(ind)  -nan(ind)  -nan(ind)  -nan(ind)
  W-2-L-M02(add)to02      1.00   -nan(ind)  -nan(ind)  -nan(ind)  -nan(ind)  -nan(ind)  -nan(ind)  -nan(ind)  -nan(ind)  -nan(ind)
  W-2-L-M02-L101-1tomain    1.00   -nan(ind)  -nan(ind)  -nan(ind)  -nan(ind)  -nan(ind)  -nan(ind)  -nan(ind)  -nan(ind)  -nan(ind)
  W-2-L-M02-L101-2to1     1.00   -nan(ind)  -nan(ind)  -nan(ind)  -nan(ind)  -nan(ind)  -nan(ind)  -nan(ind)  -nan(ind)  -nan(ind)
  W-2-L-M02-L101-3to1     1.00   -nan(ind)  -nan(ind)  -nan(ind)  -nan(ind)  -nan(ind)  -nan(ind)  -nan(ind)  -nan(ind)  -nan(ind)
  W-2-L-M02-L101-4to3     1.00   -nan(ind)  -nan(ind)  -nan(ind)  -nan(ind)  -nan(ind)  -nan(ind)  -nan(ind)  -nan(ind)  -nan(ind)
  W-2-L-M02-L101tomain    1.00   -nan(ind)  -nan(ind)  -nan(ind)  -nan(ind)  -nan(ind)  -nan(ind)  -nan(ind)  -nan(ind)  -nan(ind)
  W-2-L-M02-L102-L101tomain    1.00   -nan(ind)  -nan(ind)  -nan(ind)  -nan(ind)  -nan(ind)  -nan(ind)  -nan(ind)  -nan(ind)  -nan(ind)
  W-2-L-M02-L102-L102to101    1.00   -nan(ind)  -nan(ind)  -nan(ind)  -nan(ind)  -nan(ind)  -nan(ind)  -nan(ind)  -nan(ind)  -nan(ind)
  W-2-L-M02-L102-L201tomain    1.00   -nan(ind)  -nan(ind)  -nan(ind)  -nan(ind)  -nan(ind)  -nan(ind)  -nan(ind)  -nan(ind)  -nan(ind)
  W-2-L-M02-L102to101     1.00   -nan(ind)  -nan(ind)  -nan(ind)  -nan(ind)  -nan(ind)  -nan(ind)  -nan(ind)  -nan(ind)  -nan(ind)
  W-2-L-M02-L103ro102     1.00   -nan(ind)  -nan(ind)  -nan(ind)  -nan(ind)  -nan(ind)  -nan(ind)  -nan(ind)  -nan(ind)  -nan(ind)
  W-2-L-M02-L104to103     1.27   -nan(ind)  -nan(ind)  -nan(ind)  -nan(ind)  -nan(ind)  -nan(ind)  -nan(ind)  -nan(ind)  -nan(ind)
  W-2-L-M03to02(add)      1.00   -nan(ind)  -nan(ind)  -nan(ind)  -nan(ind)  -nan(ind)  -nan(ind)  -nan(ind)  -nan(ind)  -nan(ind)
  W-2-L-M04-301tomain     1.00   -nan(ind)  -nan(ind)  -nan(ind)  -nan(ind)  -nan(ind)  -nan(ind)  -nan(ind)  -nan(ind)  -nan(ind)
  W-2-L-M04-302-2to1      1.50   -nan(ind)  -nan(ind)  -nan(ind)  -nan(ind)  -nan(ind)  -nan(ind)  -nan(ind)  -nan(ind)  -nan(ind)
  W-2-L-M04-L101tomain    1.00   -nan(ind)  -nan(ind)  -nan(ind)  -nan(ind)  -nan(ind)  -nan(ind)  -nan(ind)  -nan(ind)  -nan(ind)
  W-2-L-M04-L201tomain    1.00   -nan(ind)  -nan(ind)  -nan(ind)  -nan(ind)  -nan(ind)  -nan(ind)  -nan(ind)  -nan(ind)  -nan(ind)
  W-2-L-M04-L202to201     1.00   -nan(ind)  -nan(ind)  -nan(ind)  -nan(ind)  -nan(ind)  -nan(ind)  -nan(ind)  -nan(ind)  -nan(ind)
  W-2-L-M04-L203-01tomain    1.00   -nan(ind)  -nan(ind)  -nan(ind)  -nan(ind)  -nan(ind)  -nan(ind)  -nan(ind)  -nan(ind)  -nan(ind)
  W-2-L-M04-L203to202     1.00   -nan(ind)  -nan(ind)  -nan(ind)  -nan(ind)  -nan(ind)  -nan(ind)  -nan(ind)  -nan(ind)  -nan(ind)
  W-2-L-M04-L204to203     1.00   -nan(ind)  -nan(ind)  -nan(ind)  -nan(ind)  -nan(ind)  -nan(ind)  -nan(ind)  -nan(ind)  -nan(ind)
  W-2-L-M04-L205to204     1.00   -nan(ind)  -nan(ind)  -nan(ind)  -nan(ind)  -nan(ind)  -nan(ind)  -nan(ind)  -nan(ind)  -nan(ind)
  W-2-L-M04-L301-1tomain    1.00   -nan(ind)  -nan(ind)  -nan(ind)  -nan(ind)  -nan(ind)  -nan(ind)  -nan(ind)  -nan(ind)  -nan(ind)
  W-2-L-M04-L301-2to1     1.00   -nan(ind)  -nan(ind)  -nan(ind)  -nan(ind)  -nan(ind)  -nan(ind)  -nan(ind)  -nan(ind)  -nan(ind)
  W-2-L-M04-L302-1tomain    1.00   -nan(ind)  -nan(ind)  -nan(ind)  -nan(ind)  -nan(ind)  -nan(ind)  -nan(ind)  -nan(ind)  -nan(ind)
  W-2-L-M04-L302-3to2     1.00   -nan(ind)  -nan(ind)  -nan(ind)  -nan(ind)  -nan(ind)  -nan(ind)  -nan(ind)  -nan(ind)  -nan(ind)
  W-2-L-M04-L302to301     1.00   -nan(ind)  -nan(ind)  -nan(ind)  -nan(ind)  -nan(ind)  -nan(ind)  -nan(ind)  -nan(ind)  -nan(ind)
  W-2-L-M04-L304-01tomain    1.00   -nan(ind)  -nan(ind)  -nan(ind)  -nan(ind)  -nan(ind)  -nan(ind)  -nan(ind)  -nan(ind)  -nan(ind)
  W-2-L-M04-L304-02tomain    1.00   -nan(ind)  -nan(ind)  -nan(ind)  -nan(ind)  -nan(ind)  -nan(ind)  -nan(ind)  -nan(ind)  -nan(ind)
  W-2-L-M04-L304-L101tomain    1.00   -nan(ind)  -nan(ind)  -nan(ind)  -nan(ind)  -nan(ind)  -nan(ind)  -nan(ind)  -nan(ind)  -nan(ind)
  W-2-L-M04-L304-L102to101    1.00   -nan(ind)  -nan(ind)  -nan(ind)  -nan(ind)  -nan(ind)  -nan(ind)  -nan(ind)  -nan(ind)  -nan(ind)
  W-2-L-M04-L304to303     1.00   -nan(ind)  -nan(ind)  -nan(ind)  -nan(ind)  -nan(ind)  -nan(ind)  -nan(ind)  -nan(ind)  -nan(ind)
  W-2-L-M04-L305to304     1.00   -nan(ind)  -nan(ind)  -nan(ind)  -nan(ind)  -nan(ind)  -nan(ind)  -nan(ind)  -nan(ind)  -nan(ind)
  W-2-L-M04-L306to305     1.00   -nan(ind)  -nan(ind)  -nan(ind)  -nan(ind)  -nan(ind)  -nan(ind)  -nan(ind)  -nan(ind)  -nan(ind)
  W-2-L-M04-L307to306     1.00   -nan(ind)  -nan(ind)  -nan(ind)  -nan(ind)  -nan(ind)  -nan(ind)  -nan(ind)  -nan(ind)  -nan(ind)
  W-2-L-M04-L307to308     1.00   -nan(ind)  -nan(ind)  -nan(ind)  -nan(ind)  -nan(ind)  -nan(ind)  -nan(ind)  -nan(ind)  -nan(ind)
  W-2-L-M04-L308to309     1.00   -nan(ind)  -nan(ind)  -nan(ind)  -nan(ind)  -nan(ind)  -nan(ind)  -nan(ind)  -nan(ind)  -nan(ind)
  W-2-L-M04-L309to310     1.29   -nan(ind)  -nan(ind)  -nan(ind)  -nan(ind)  -nan(ind)  -nan(ind)  -nan(ind)  -nan(ind)  -nan(ind)
  W-2-L-M04-L310-01tomain    1.00   -nan(ind)  -nan(ind)  -nan(ind)  -nan(ind)  -nan(ind)  -nan(ind)  -nan(ind)  -nan(ind)  -nan(ind)
  W-2-L-M04-L310-02to01    1.00   -nan(ind)  -nan(ind)  -nan(ind)  -nan(ind)  -nan(ind)  -nan(ind)  -nan(ind)  -nan(ind)  -nan(ind)
  W-2-L-M04-L310-03to02    2.51   -nan(ind)  -nan(ind)  -nan(ind)  -nan(ind)  -nan(ind)  -nan(ind)  -nan(ind)  -nan(ind)  -nan(ind)
  W-2-L-M04-L310to311     1.00   -nan(ind)  -nan(ind)  -nan(ind)  -nan(ind)  -nan(ind)  -nan(ind)  -nan(ind)  -nan(ind)  -nan(ind)
  W-2-L-M04-L311toL203-01    1.00   -nan(ind)  -nan(ind)  -nan(ind)  -nan(ind)  -nan(ind)  -nan(ind)  -nan(ind)  -nan(ind)  -nan(ind)
  W-2-L-M04to03           1.00   -nan(ind)  -nan(ind)  -nan(ind)  -nan(ind)  -nan(ind)  -nan(ind)  -nan(ind)  -nan(ind)  -nan(ind)
  W-2-L-M06-L101-01tomain    1.00   -nan(ind)  -nan(ind)  -nan(ind)  -nan(ind)  -nan(ind)  -nan(ind)  -nan(ind)  -nan(ind)  -nan(ind)
  W-2-L-M06-L101-02to01    1.00   -nan(ind)  -nan(ind)  -nan(ind)  -nan(ind)  -nan(ind)  -nan(ind)  -nan(ind)  -nan(ind)  -nan(ind)
  W-2-L-M06-L101tomain    1.00   -nan(ind)  -nan(ind)  -nan(ind)  -nan(ind)  -nan(ind)  -nan(ind)  -nan(ind)  -nan(ind)  -nan(ind)
  W-2-L-M06-L102to101     1.00   -nan(ind)  -nan(ind)  -nan(ind)  -nan(ind)  -nan(ind)  -nan(ind)  -nan(ind)  -nan(ind)  -nan(ind)
  W-2-L-M06-L103to102     1.00   -nan(ind)  -nan(ind)  -nan(ind)  -nan(ind)  -nan(ind)  -nan(ind)  -nan(ind)  -nan(ind)  -nan(ind)
  W-2-L-M06-L104to103     1.00   -nan(ind)  -nan(ind)  -nan(ind)  -nan(ind)  -nan(ind)  -nan(ind)  -nan(ind)  -nan(ind)  -nan(ind)
  W-2-L-M06-L105to104     1.00   -nan(ind)  -nan(ind)  -nan(ind)  -nan(ind)  -nan(ind)  -nan(ind)  -nan(ind)  -nan(ind)  -nan(ind)
  W-2-L-M06-L106to105     1.00   -nan(ind)  -nan(ind)  -nan(ind)  -nan(ind)  -nan(ind)  -nan(ind)  -nan(ind)  -nan(ind)  -nan(ind)
  W-2-L-M06-L107to106     1.00   -nan(ind)  -nan(ind)  -nan(ind)  -nan(ind)  -nan(ind)  -nan(ind)  -nan(ind)  -nan(ind)  -nan(ind)
  W-2-L-M06-L108to107     1.00   -nan(ind)  -nan(ind)  -nan(ind)  -nan(ind)  -nan(ind)  -nan(ind)  -nan(ind)  -nan(ind)  -nan(ind)
  W-2-L-M06-L109-L101tomain    1.00   -nan(ind)  -nan(ind)  -nan(ind)  -nan(ind)  -nan(ind)  -nan(ind)  -nan(ind)  -nan(ind)  -nan(ind)
  W-2-L-M06-L109-L103     1.00   -nan(ind)  -nan(ind)  -nan(ind)  -nan(ind)  -nan(ind)  -nan(ind)  -nan(ind)  -nan(ind)  -nan(ind)
  W-2-L-M06-L109-L103to102    1.00   -nan(ind)  -nan(ind)  -nan(ind)  -nan(ind)  -nan(ind)  -nan(ind)  -nan(ind)  -nan(ind)  -nan(ind)
  W-2-L-M06-L111to110     1.00   -nan(ind)  -nan(ind)  -nan(ind)  -nan(ind)  -nan(ind)  -nan(ind)  -nan(ind)  -nan(ind)  -nan(ind)
  W-2-L-M06-L119to108     1.00   -nan(ind)  -nan(ind)  -nan(ind)  -nan(ind)  -nan(ind)  -nan(ind)  -nan(ind)  -nan(ind)  -nan(ind)
  W-2-L-M06-L201tomain    1.00   -nan(ind)  -nan(ind)  -nan(ind)  -nan(ind)  -nan(ind)  -nan(ind)  -nan(ind)  -nan(ind)  -nan(ind)
  W-2-L-M06-L202to201     1.00   -nan(ind)  -nan(ind)  -nan(ind)  -nan(ind)  -nan(ind)  -nan(ind)  -nan(ind)  -nan(ind)  -nan(ind)
  W-2-L-M06-L203-01tomain    1.00   -nan(ind)  -nan(ind)  -nan(ind)  -nan(ind)  -nan(ind)  -nan(ind)  -nan(ind)  -nan(ind)  -nan(ind)
  W-2-L-M06-L203-02to01    1.00   -nan(ind)  -nan(ind)  -nan(ind)  -nan(ind)  -nan(ind)  -nan(ind)  -nan(ind)  -nan(ind)  -nan(ind)
  W-2-L-M06-L203-03to02    1.32   -nan(ind)  -nan(ind)  -nan(ind)  -nan(ind)  -nan(ind)  -nan(ind)  -nan(ind)  -nan(ind)  -nan(ind)
  W-2-L-M06-L203to202     1.00   -nan(ind)  -nan(ind)  -nan(ind)  -nan(ind)  -nan(ind)  -nan(ind)  -nan(ind)  -nan(ind)  -nan(ind)
  W-2-L-M06-L204(bottom)to204    1.00   -nan(ind)  -nan(ind)  -nan(ind)  -nan(ind)  -nan(ind)  -nan(ind)  -nan(ind)  -nan(ind)  -nan(ind)
  W-2-L-M06-L204to103/end    1.00   -nan(ind)  -nan(ind)  -nan(ind)  -nan(ind)  -nan(ind)  -nan(ind)  -nan(ind)  -nan(ind)  -nan(ind)
  W-2-L-M06-L205to204     1.00   -nan(ind)  -nan(ind)  -nan(ind)  -nan(ind)  -nan(ind)  -nan(ind)  -nan(ind)  -nan(ind)  -nan(ind)
  W-2-L-M06-L206to205     1.00   -nan(ind)  -nan(ind)  -nan(ind)  -nan(ind)  -nan(ind)  -nan(ind)  -nan(ind)  -nan(ind)  -nan(ind)
  W-2-L-M06-L207to206     1.00   -nan(ind)  -nan(ind)  -nan(ind)  -nan(ind)  -nan(ind)  -nan(ind)  -nan(ind)  -nan(ind)  -nan(ind)
  W-2-L-M06-L208to207     1.00   -nan(ind)  -nan(ind)  -nan(ind)  -nan(ind)  -nan(ind)  -nan(ind)  -nan(ind)  -nan(ind)  -nan(ind)
  W-2-L-M06-L209to208     1.00   -nan(ind)  -nan(ind)  -nan(ind)  -nan(ind)  -nan(ind)  -nan(ind)  -nan(ind)  -nan(ind)  -nan(ind)
  W-2-L-M06-L210to209     1.00   -nan(ind)  -nan(ind)  -nan(ind)  -nan(ind)  -nan(ind)  -nan(ind)  -nan(ind)  -nan(ind)  -nan(ind)
  W-2-L-M06tosump1        1.00   -nan(ind)  -nan(ind)  -nan(ind)  -nan(ind)  -nan(ind)  -nan(ind)  -nan(ind)  -nan(ind)  -nan(ind)
  W-2-L-M07-L101-01tomain    1.00   -nan(ind)  -nan(ind)  -nan(ind)  -nan(ind)  -nan(ind)  -nan(ind)  -nan(ind)  -nan(ind)  -nan(ind)
  W-2-L-M07-L101-02to01    1.00   -nan(ind)  -nan(ind)  -nan(ind)  -nan(ind)  -nan(ind)  -nan(ind)  -nan(ind)  -nan(ind)  -nan(ind)
  W-2-L-M07-L101tomain    1.00   -nan(ind)  -nan(ind)  -nan(ind)  -nan(ind)  -nan(ind)  -nan(ind)  -nan(ind)  -nan(ind)  -nan(ind)
  W-2-L-M07-L102to101     1.00   -nan(ind)  -nan(ind)  -nan(ind)  -nan(ind)  -nan(ind)  -nan(ind)  -nan(ind)  -nan(ind)  -nan(ind)
  W-2-L-M07-L103to102     1.00   -nan(ind)  -nan(ind)  -nan(ind)  -nan(ind)  -nan(ind)  -nan(ind)  -nan(ind)  -nan(ind)  -nan(ind)
  W-2-L-M07-L201tomain    1.00   -nan(ind)  -nan(ind)  -nan(ind)  -nan(ind)  -nan(ind)  -nan(ind)  -nan(ind)  -nan(ind)  -nan(ind)
  W-2-L-M07-L202to201     1.00   -nan(ind)  -nan(ind)  -nan(ind)  -nan(ind)  -nan(ind)  -nan(ind)  -nan(ind)  -nan(ind)  -nan(ind)
  W-2-L-M07-L203to202     1.00   -nan(ind)  -nan(ind)  -nan(ind)  -nan(ind)  -nan(ind)  -nan(ind)  -nan(ind)  -nan(ind)  -nan(ind)
  W-2-L-M07to06           1.00   -nan(ind)  -nan(ind)  -nan(ind)  -nan(ind)  -nan(ind)  -nan(ind)  -nan(ind)  -nan(ind)  -nan(ind)
  W-2-M01-L101-01tomain    1.00   -nan(ind)  -nan(ind)  -nan(ind)  -nan(ind)  -nan(ind)  -nan(ind)  -nan(ind)  -nan(ind)  -nan(ind)
  W-2-M01-L101-02tomain    1.00   -nan(ind)  -nan(ind)  -nan(ind)  -nan(ind)  -nan(ind)  -nan(ind)  -nan(ind)  -nan(ind)  -nan(ind)
  W-2-M01-L101tomain      1.59   -nan(ind)  -nan(ind)  -nan(ind)  -nan(ind)  -nan(ind)  -nan(ind)  -nan(ind)  -nan(ind)  -nan(ind)
  W-2-M01to03(main)       1.00   -nan(ind)  -nan(ind)  -nan(ind)  -nan(ind)  -nan(ind)  -nan(ind)  -nan(ind)  -nan(ind)  -nan(ind)
  W-2-M02to01             1.00   -nan(ind)  -nan(ind)  -nan(ind)  -nan(ind)  -nan(ind)  -nan(ind)  -nan(ind)  -nan(ind)  -nan(ind)
  W-3-L-M01to2-M06-L102    1.00   -nan(ind)  -nan(ind)  -nan(ind)  -nan(ind)  -nan(ind)  -nan(ind)  -nan(ind)  -nan(ind)  -nan(ind)
  W-3-L-M07-L101tomain    1.00   -nan(ind)  -nan(ind)  -nan(ind)  -nan(ind)  -nan(ind)  -nan(ind)  -nan(ind)  -nan(ind)  -nan(ind)
  W-3-L-M07to05           1.00   -nan(ind)  -nan(ind)  -nan(ind)  -nan(ind)  -nan(ind)  -nan(ind)  -nan(ind)  -nan(ind)  -nan(ind)
  W-3-L-M08to07           1.00   -nan(ind)  -nan(ind)  -nan(ind)  -nan(ind)  -nan(ind)  -nan(ind)  -nan(ind)  -nan(ind)  -nan(ind)
  W-3-L-M09to08           1.00   -nan(ind)  -nan(ind)  -nan(ind)  -nan(ind)  -nan(ind)  -nan(ind)  -nan(ind)  -nan(ind)  -nan(ind)
  W-3-M02to01             1.00   -nan(ind)  -nan(ind)  -nan(ind)  -nan(ind)  -nan(ind)  -nan(ind)  -nan(ind)  -nan(ind)  -nan(ind)
  W-3-M03-L101tomain      1.00   -nan(ind)  -nan(ind)  -nan(ind)  -nan(ind)  -nan(ind)  -nan(ind)  -nan(ind)  -nan(ind)  -nan(ind)
  W-3-M03to02             1.00   -nan(ind)  -nan(ind)  -nan(ind)  -nan(ind)  -nan(ind)  -nan(ind)  -nan(ind)  -nan(ind)  -nan(ind)
  W-3-M04to03             1.00   -nan(ind)  -nan(ind)  -nan(ind)  -nan(ind)  -nan(ind)  -nan(ind)  -nan(ind)  -nan(ind)  -nan(ind)
  W-3-M05to03             1.00   -nan(ind)  -nan(ind)  -nan(ind)  -nan(ind)  -nan(ind)  -nan(ind)  -nan(ind)  -nan(ind)  -nan(ind)
  W-3-M06to05             1.00   -nan(ind)  -nan(ind)  -nan(ind)  -nan(ind)  -nan(ind)  -nan(ind)  -nan(ind)  -nan(ind)  -nan(ind)
  W-4-L-M01to3-M01        1.00   -nan(ind)  -nan(ind)  -nan(ind)  -nan(ind)  -nan(ind)  -nan(ind)  -nan(ind)  -nan(ind)  -nan(ind)
  W-4-L-M02to01           1.00   -nan(ind)  -nan(ind)  -nan(ind)  -nan(ind)  -nan(ind)  -nan(ind)  -nan(ind)  -nan(ind)  -nan(ind)
  W-4-L-M03(add)to02      1.00   -nan(ind)  -nan(ind)  -nan(ind)  -nan(ind)  -nan(ind)  -nan(ind)  -nan(ind)  -nan(ind)  -nan(ind)
  W-4-L-M03(add)to03      1.00   -nan(ind)  -nan(ind)  -nan(ind)  -nan(ind)  -nan(ind)  -nan(ind)  -nan(ind)  -nan(ind)  -nan(ind)
  W-4-L-M03-L101tomain    1.34   -nan(ind)  -nan(ind)  -nan(ind)  -nan(ind)  -nan(ind)  -nan(ind)  -nan(ind)  -nan(ind)  -nan(ind)
  W-4-L-M04to03           1.00   -nan(ind)  -nan(ind)  -nan(ind)  -nan(ind)  -nan(ind)  -nan(ind)  -nan(ind)  -nan(ind)  -nan(ind)
  W-4-L-M05-L101tomain    2.68   -nan(ind)  -nan(ind)  -nan(ind)  -nan(ind)  -nan(ind)  -nan(ind)  -nan(ind)  -nan(ind)  -nan(ind)
  W-4-L-M05to04           1.00   -nan(ind)  -nan(ind)  -nan(ind)  -nan(ind)  -nan(ind)  -nan(ind)  -nan(ind)  -nan(ind)  -nan(ind)
  W-4-L-M06to05           1.00   -nan(ind)  -nan(ind)  -nan(ind)  -nan(ind)  -nan(ind)  -nan(ind)  -nan(ind)  -nan(ind)  -nan(ind)
  W-5-L-M02to01           1.00   -nan(ind)  -nan(ind)  -nan(ind)  -nan(ind)  -nan(ind)  -nan(ind)  -nan(ind)  -nan(ind)  -nan(ind)
  W-5-L-M03to02           1.04   -nan(ind)  -nan(ind)  -nan(ind)  -nan(ind)  -nan(ind)  -nan(ind)  -nan(ind)  -nan(ind)  -nan(ind)
  W-5-L-M03toW-4-L-M01    1.00   -nan(ind)  -nan(ind)  -nan(ind)  -nan(ind)  -nan(ind)  -nan(ind)  -nan(ind)  -nan(ind)  -nan(ind)
  W-northmain1-sump       1.00   -nan(ind)  -nan(ind)  -nan(ind)  -nan(ind)  -nan(ind)  -nan(ind)  -nan(ind)  -nan(ind)  -nan(ind)
  W-northmain2-sump       1.11   -nan(ind)  -nan(ind)  -nan(ind)  -nan(ind)  -nan(ind)  -nan(ind)  -nan(ind)  -nan(ind)  -nan(ind)
  W-northmain3-sump       9.29   -nan(ind)  -nan(ind)  -nan(ind)  -nan(ind)  -nan(ind)  -nan(ind)  -nan(ind)  -nan(ind)  -nan(ind)
  W-southmain-1to2        1.00   -nan(ind)  -nan(ind)  -nan(ind)  -nan(ind)  -nan(ind)  -nan(ind)  -nan(ind)  -nan(ind)  -nan(ind)
  W-southmain-2to3        1.00   -nan(ind)  -nan(ind)  -nan(ind)  -nan(ind)  -nan(ind)  -nan(ind)  -nan(ind)  -nan(ind)  -nan(ind)
  W-southmain-3to4        1.00   -nan(ind)  -nan(ind)  -nan(ind)  -nan(ind)  -nan(ind)  -nan(ind)  -nan(ind)  -nan(ind)  -nan(ind)
  W-southmain-4tosump     1.00   -nan(ind)  -nan(ind)  -nan(ind)  -nan(ind)  -nan(ind)  -nan(ind)  -nan(ind)  -nan(ind)  -nan(ind)
  W-1-L-476               1.00   -nan(ind)  -nan(ind)  -nan(ind)  -nan(ind)  -nan(ind)  -nan(ind)  -nan(ind)  -nan(ind)  -nan(ind)
  
  
  *************************
  Conduit Surcharge Summary
  *************************
  
  No conduits were surcharged.
  
  
  ***************
  Pumping Summary
  ***************
  
  ---------------------------------------------------------------------------------------------------------
                                                  Min       Avg       Max     Total     Power    % Time Off
                        Percent   Number of      Flow      Flow      Flow    Volume     Usage    Pump Curve
  Pump                 Utilized   Start-Ups       CMS       CMS       CMS  10^6 ltr     Kw-hr    Low   High
  ---------------------------------------------------------------------------------------------------------
  Storm-Pump-sump1     -nan(ind)           0      0.00      0.00      0.00     0.000      0.00    0.0    0.0
  Storm-Pump-sump2     -nan(ind)           0      0.00      0.00      0.00     0.000      0.00    0.0    0.0
  Storm-Pump-sump3     -nan(ind)           0      0.00      0.00      0.00     0.000      0.00    0.0    0.0
  Waste-Pump-sump1     -nan(ind)           0      0.00      0.00      0.00     0.000      0.00    0.0    0.0
  

  Analysis begun on:  Sat Nov 30 08:10:44 2019
  Analysis ended on:  Sat Nov 30 08:10:45 2019
  Total elapsed time: 00:00:01