
  EPA STORM WATER MANAGEMENT MODEL - VERSION 5.1 (Build 5.1.013)
  --------------------------------------------------------------

  WARNING 03: negative offset ignored for Link CDT-2087
  WARNING 03: negative offset ignored for Link CDT-335
  WARNING 04: minimum elevation drop used for Conduit CDT-785
  WARNING 03: negative offset ignored for Link CDT-803
  WARNING 03: negative offset ignored for Link CDT-827
  WARNING 03: negative offset ignored for Link CDT-887
  
  *********************************************************
  NOTE: The summary statistics displayed in this report are
  based on results found at every computational time step,  
  not just on results from each reporting time step.
  *********************************************************
  
  ****************
  Analysis Options
  ****************
  Flow Units ............... MGD
  Process Models:
    Rainfall/Runoff ........ NO
    RDII ................... NO
    Snowmelt ............... NO
    Groundwater ............ NO
    Flow Routing ........... YES
    Ponding Allowed ........ YES
    Water Quality .......... NO
  Flow Routing Method ...... DYNWAVE
  Surcharge Method ......... EXTRAN
  Starting Date ............ 09/18/2018 00:00:00
  Ending Date .............. 09/22/2018 23:00:00
  Antecedent Dry Days ...... 5.0
  Report Time Step ......... 00:01:00
  Routing Time Step ........ 10.00 sec
  Variable Time Step ....... YES
  Maximum Trials ........... 8
  Number of Threads ........ 8
  Head Tolerance ........... 0.000100 ft
  
  
  **************************        Volume        Volume
  Flow Routing Continuity        acre-feet      10^6 gal
  **************************     ---------     ---------
  Dry Weather Inflow .......         0.000         0.000
  Wet Weather Inflow .......         0.000         0.000
  Groundwater Inflow .......         0.000         0.000
  RDII Inflow ..............         0.000         0.000
  External Inflow ..........         0.000         0.000
  External Outflow .........         0.000         0.000
  Flooding Loss ............         0.000         0.000
  Evaporation Loss .........         0.000         0.000
  Exfiltration Loss ........         0.000         0.000
  Initial Stored Volume ....         0.000         0.000
  Final Stored Volume ......         0.000         0.000
  Continuity Error (%) .....         0.000
  
  
  ***************************
  Time-Step Critical Elements
  ***************************
  None
  
  
  ********************************
  Highest Flow Instability Indexes
  ********************************
  All links are stable.
  
  
  ******************
  Node Depth Summary
  ******************
  
  ---------------------------------------------------------------------------------
                                 Average  Maximum  Maximum  Time of Max    Reported
                                   Depth    Depth      HGL   Occurrence   Max Depth
  Node                 Type         Feet     Feet     Feet  days hr:min        Feet
  ---------------------------------------------------------------------------------
  JCT-10               JUNCTION  -nan(ind)     0.00   972.06     0  00:00        0.00
  JCT-100              JUNCTION  -nan(ind)     0.00   959.17     0  00:00        0.00
  JCT-1000             JUNCTION  -nan(ind)     0.00   984.14     0  00:00        0.00
  JCT-1002             JUNCTION  -nan(ind)     0.00   987.30     0  00:00        0.00
  JCT-1004             JUNCTION  -nan(ind)     0.00   985.95     0  00:00        0.00
  JCT-1006             JUNCTION  -nan(ind)     0.00   986.65     0  00:00        0.00
  JCT-1008             JUNCTION  -nan(ind)     0.00   979.30     0  00:00        0.00
  JCT-1010             JUNCTION  -nan(ind)     0.00   981.86     0  00:00        0.00
  JCT-1012             JUNCTION  -nan(ind)     0.00   984.89     0  00:00        0.00
  JCT-1014             JUNCTION  -nan(ind)     0.00   983.79     0  00:00        0.00
  JCT-1016             JUNCTION  -nan(ind)     0.00   978.22     0  00:00        0.00
  JCT-1018             JUNCTION  -nan(ind)     0.00   977.04     0  00:00        0.00
  JCT-102              JUNCTION  -nan(ind)     0.00   958.65     0  00:00        0.00
  JCT-1020             JUNCTION  -nan(ind)     0.00   976.04     0  00:00        0.00
  JCT-1022             JUNCTION  -nan(ind)     0.00   974.16     0  00:00        0.00
  JCT-1024             JUNCTION  -nan(ind)     0.00   974.16     0  00:00        0.00
  JCT-1026             JUNCTION  -nan(ind)     0.00   974.05     0  00:00        0.00
  JCT-1028             JUNCTION  -nan(ind)     0.00   972.15     0  00:00        0.00
  JCT-1030             JUNCTION  -nan(ind)     0.00   971.95     0  00:00        0.00
  JCT-1032             JUNCTION  -nan(ind)     0.00   971.50     0  00:00        0.00
  JCT-1034             JUNCTION  -nan(ind)     0.00   970.60     0  00:00        0.00
  JCT-1036             JUNCTION  -nan(ind)     0.00   969.51     0  00:00        0.00
  JCT-1038             JUNCTION  -nan(ind)     0.00   969.85     0  00:00        0.00
  JCT-104              JUNCTION  -nan(ind)     0.00   958.13     0  00:00        0.00
  JCT-1040             JUNCTION  -nan(ind)     0.00   968.59     0  00:00        0.00
  JCT-1042             JUNCTION  -nan(ind)     0.00   968.27     0  00:00        0.00
  JCT-1044             JUNCTION  -nan(ind)     0.00   967.41     0  00:00        0.00
  JCT-1046             JUNCTION  -nan(ind)     0.00   960.08     0  00:00        0.00
  JCT-1048             JUNCTION  -nan(ind)     0.00   963.47     0  00:00        0.00
  JCT-1050             JUNCTION  -nan(ind)     0.00   960.08     0  00:00        0.00
  JCT-1052             JUNCTION  -nan(ind)     0.00   961.73     0  00:00        0.00
  JCT-1054             JUNCTION  -nan(ind)     0.00   963.39     0  00:00        0.00
  JCT-1056             JUNCTION  -nan(ind)     0.00   978.10     0  00:00        0.00
  JCT-1058             JUNCTION  -nan(ind)     0.00   986.17     0  00:00        0.00
  JCT-106              JUNCTION  -nan(ind)     0.00   957.90     0  00:00        0.00
  JCT-1060             JUNCTION  -nan(ind)     0.00   987.51     0  00:00        0.00
  JCT-1062             JUNCTION  -nan(ind)     0.00   979.87     0  00:00        0.00
  JCT-1064             JUNCTION  -nan(ind)     0.00   979.18     0  00:00        0.00
  JCT-1066             JUNCTION  -nan(ind)     0.00   978.97     0  00:00        0.00
  JCT-1068             JUNCTION  -nan(ind)     0.00   975.39     0  00:00        0.00
  JCT-1070             JUNCTION  -nan(ind)     0.00   974.60     0  00:00        0.00
  JCT-1072             JUNCTION  -nan(ind)     0.00   973.40     0  00:00        0.00
  JCT-1074             JUNCTION  -nan(ind)     0.00   975.63     0  00:00        0.00
  JCT-1076             JUNCTION  -nan(ind)     0.00   981.13     0  00:00        0.00
  JCT-1078             JUNCTION  -nan(ind)     0.00   978.04     0  00:00        0.00
  JCT-108              JUNCTION  -nan(ind)     0.00   957.35     0  00:00        0.00
  JCT-1080             JUNCTION  -nan(ind)     0.00  1002.19     0  00:00        0.00
  JCT-1082             JUNCTION  -nan(ind)     0.00  1003.40     0  00:00        0.00
  JCT-1084             JUNCTION  -nan(ind)     0.00  1014.79     0  00:00        0.00
  JCT-1086             JUNCTION  -nan(ind)     0.00  1002.38     0  00:00        0.00
  JCT-1088             JUNCTION  -nan(ind)     0.00   978.52     0  00:00        0.00
  JCT-1090             JUNCTION  -nan(ind)     0.00   986.86     0  00:00        0.00
  JCT-1092             JUNCTION  -nan(ind)     0.00   959.36     0  00:00        0.00
  JCT-1094             JUNCTION  -nan(ind)     0.00   959.22     0  00:00        0.00
  JCT-1096             JUNCTION  -nan(ind)     0.00   959.00     0  00:00        0.00
  JCT-1098             JUNCTION  -nan(ind)     0.00   958.31     0  00:00        0.00
  JCT-110              JUNCTION  -nan(ind)     0.00   956.58     0  00:00        0.00
  JCT-1100             JUNCTION  -nan(ind)     0.00   961.45     0  00:00        0.00
  JCT-1102             JUNCTION  -nan(ind)     0.00   957.53     0  00:00        0.00
  JCT-1104             JUNCTION  -nan(ind)     0.00   956.16     0  00:00        0.00
  JCT-1106             JUNCTION  -nan(ind)     0.00   958.00     0  00:00        0.00
  JCT-1108             JUNCTION  -nan(ind)     0.00   955.12     0  00:00        0.00
  JCT-1110             JUNCTION  -nan(ind)     0.00   971.93     0  00:00        0.00
  JCT-1112             JUNCTION  -nan(ind)     0.00   974.53     0  00:00        0.00
  JCT-1114             JUNCTION  -nan(ind)     0.00   967.14     0  00:00        0.00
  JCT-1116             JUNCTION  -nan(ind)     0.00   973.49     0  00:00        0.00
  JCT-1118             JUNCTION  -nan(ind)     0.00   990.73     0  00:00        0.00
  JCT-112              JUNCTION  -nan(ind)     0.00   955.99     0  00:00        0.00
  JCT-1120             JUNCTION  -nan(ind)     0.00   989.03     0  00:00        0.00
  JCT-1122             JUNCTION  -nan(ind)     0.00   983.01     0  00:00        0.00
  JCT-1124             JUNCTION  -nan(ind)     0.00   989.43     0  00:00        0.00
  JCT-1126             JUNCTION  -nan(ind)     0.00   988.37     0  00:00        0.00
  JCT-1128             JUNCTION  -nan(ind)     0.00   984.40     0  00:00        0.00
  JCT-1130             JUNCTION  -nan(ind)     0.00  1009.68     0  00:00        0.00
  JCT-1132             JUNCTION  -nan(ind)     0.00  1007.43     0  00:00        0.00
  JCT-1134             JUNCTION  -nan(ind)     0.00  1001.80     0  00:00        0.00
  JCT-1136             JUNCTION  -nan(ind)     0.00  1001.11     0  00:00        0.00
  JCT-1138             JUNCTION  -nan(ind)     0.00  1000.18     0  00:00        0.00
  JCT-114              JUNCTION  -nan(ind)     0.00   954.99     0  00:00        0.00
  JCT-1140             JUNCTION  -nan(ind)     0.00   999.12     0  00:00        0.00
  JCT-1142             JUNCTION  -nan(ind)     0.00   996.37     0  00:00        0.00
  JCT-1144             JUNCTION  -nan(ind)     0.00   999.53     0  00:00        0.00
  JCT-1146             JUNCTION  -nan(ind)     0.00   994.92     0  00:00        0.00
  JCT-1148             JUNCTION  -nan(ind)     0.00   994.34     0  00:00        0.00
  JCT-1150             JUNCTION  -nan(ind)     0.00   993.23     0  00:00        0.00
  JCT-1152             JUNCTION  -nan(ind)     0.00  1000.80     0  00:00        0.00
  JCT-1154             JUNCTION  -nan(ind)     0.00   994.04     0  00:00        0.00
  JCT-1156             JUNCTION  -nan(ind)     0.00   993.34     0  00:00        0.00
  JCT-1158             JUNCTION  -nan(ind)     0.00   990.16     0  00:00        0.00
  JCT-116              JUNCTION  -nan(ind)     0.00   954.61     0  00:00        0.00
  JCT-1160             JUNCTION  -nan(ind)     0.00   988.96     0  00:00        0.00
  JCT-1162             JUNCTION  -nan(ind)     0.00   987.46     0  00:00        0.00
  JCT-1164             JUNCTION  -nan(ind)     0.00   985.42     0  00:00        0.00
  JCT-1166             JUNCTION  -nan(ind)     0.00   995.89     0  00:00        0.00
  JCT-1168             JUNCTION  -nan(ind)     0.00   994.49     0  00:00        0.00
  JCT-1170             JUNCTION  -nan(ind)     0.00   991.30     0  00:00        0.00
  JCT-1172             JUNCTION  -nan(ind)     0.00   991.29     0  00:00        0.00
  JCT-1174             JUNCTION  -nan(ind)     0.00   990.30     0  00:00        0.00
  JCT-1176             JUNCTION  -nan(ind)     0.00   988.23     0  00:00        0.00
  JCT-1178             JUNCTION  -nan(ind)     0.00   987.20     0  00:00        0.00
  JCT-118              JUNCTION  -nan(ind)     0.00   954.31     0  00:00        0.00
  JCT-1180             JUNCTION  -nan(ind)     0.00   988.41     0  00:00        0.00
  JCT-1182             JUNCTION  -nan(ind)     0.00   986.99     0  00:00        0.00
  JCT-1184             JUNCTION  -nan(ind)     0.00   987.73     0  00:00        0.00
  JCT-1186             JUNCTION  -nan(ind)     0.00   982.85     0  00:00        0.00
  JCT-1188             JUNCTION  -nan(ind)     0.00   984.95     0  00:00        0.00
  JCT-1190             JUNCTION  -nan(ind)     0.00   986.89     0  00:00        0.00
  JCT-1192             JUNCTION  -nan(ind)     0.00   992.41     0  00:00        0.00
  JCT-1194             JUNCTION  -nan(ind)     0.00   990.58     0  00:00        0.00
  JCT-1196             JUNCTION  -nan(ind)     0.00   987.91     0  00:00        0.00
  JCT-1198             JUNCTION  -nan(ind)     0.00   986.23     0  00:00        0.00
  JCT-12               JUNCTION  -nan(ind)     0.00   966.51     0  00:00        0.00
  JCT-120              JUNCTION  -nan(ind)     0.00   958.70     0  00:00        0.00
  JCT-1200             JUNCTION  -nan(ind)     0.00   971.51     0  00:00        0.00
  JCT-1202             JUNCTION  -nan(ind)     0.00   979.20     0  00:00        0.00
  JCT-1204             JUNCTION  -nan(ind)     0.00   970.49     0  00:00        0.00
  JCT-1206             JUNCTION  -nan(ind)     0.00   965.07     0  00:00        0.00
  JCT-1208             JUNCTION  -nan(ind)     0.00   991.20     0  00:00        0.00
  JCT-1210             JUNCTION  -nan(ind)     0.00   983.00     0  00:00        0.00
  JCT-1212             JUNCTION  -nan(ind)     0.00   961.74     0  00:00        0.00
  JCT-1214             JUNCTION  -nan(ind)     0.00   955.65     0  00:00        0.00
  JCT-1216             JUNCTION  -nan(ind)     0.00   956.35     0  00:00        0.00
  JCT-1218             JUNCTION  -nan(ind)     0.00   957.57     0  00:00        0.00
  JCT-122              JUNCTION  -nan(ind)     0.00   960.34     0  00:00        0.00
  JCT-1220             JUNCTION  -nan(ind)     0.00   957.95     0  00:00        0.00
  JCT-1222             JUNCTION  -nan(ind)     0.00   958.27     0  00:00        0.00
  JCT-1224             JUNCTION  -nan(ind)     0.00   959.03     0  00:00        0.00
  JCT-1226             JUNCTION  -nan(ind)     0.00   959.90     0  00:00        0.00
  JCT-1228             JUNCTION  -nan(ind)     0.00   973.99     0  00:00        0.00
  JCT-1230             JUNCTION  -nan(ind)     0.00   970.57     0  00:00        0.00
  JCT-1232             JUNCTION  -nan(ind)     0.00   992.10     0  00:00        0.00
  JCT-1234             JUNCTION  -nan(ind)     0.00   986.37     0  00:00        0.00
  JCT-1236             JUNCTION  -nan(ind)     0.00   968.50     0  00:00        0.00
  JCT-1238             JUNCTION  -nan(ind)     0.00   953.71     0  00:00        0.00
  JCT-124              JUNCTION  -nan(ind)     0.00   971.35     0  00:00        0.00
  JCT-1240             JUNCTION  -nan(ind)     0.00   953.20     0  00:00        0.00
  JCT-1242             JUNCTION  -nan(ind)     0.00   953.10     0  00:00        0.00
  JCT-1244             JUNCTION  -nan(ind)     0.00   984.78     0  00:00        0.00
  JCT-1246             JUNCTION  -nan(ind)     0.00   988.52     0  00:00        0.00
  JCT-1248             JUNCTION  -nan(ind)     0.00   985.68     0  00:00        0.00
  JCT-1250             JUNCTION  -nan(ind)     0.00   982.81     0  00:00        0.00
  JCT-1252             JUNCTION  -nan(ind)     0.00   990.72     0  00:00        0.00
  JCT-1254             JUNCTION  -nan(ind)     0.00   989.77     0  00:00        0.00
  JCT-1256             JUNCTION  -nan(ind)     0.00   993.75     0  00:00        0.00
  JCT-1258             JUNCTION  -nan(ind)     0.00   995.11     0  00:00        0.00
  JCT-126              JUNCTION  -nan(ind)     0.00   976.92     0  00:00        0.00
  JCT-1260             JUNCTION  -nan(ind)     0.00   993.07     0  00:00        0.00
  JCT-1262             JUNCTION  -nan(ind)     0.00   993.51     0  00:00        0.00
  JCT-1264             JUNCTION  -nan(ind)     0.00   992.24     0  00:00        0.00
  JCT-1266             JUNCTION  -nan(ind)     0.00   994.44     0  00:00        0.00
  JCT-1268             JUNCTION  -nan(ind)     0.00   993.75     0  00:00        0.00
  JCT-1270             JUNCTION  -nan(ind)     0.00   993.32     0  00:00        0.00
  JCT-1272             JUNCTION  -nan(ind)     0.00   962.27     0  00:00        0.00
  JCT-1274             JUNCTION  -nan(ind)     0.00   988.45     0  00:00        0.00
  JCT-1276             JUNCTION  -nan(ind)     0.00   988.00     0  00:00        0.00
  JCT-1278             JUNCTION  -nan(ind)     0.00   988.74     0  00:00        0.00
  JCT-128              JUNCTION  -nan(ind)     0.00   978.61     0  00:00        0.00
  JCT-1280             JUNCTION  -nan(ind)     0.00   990.34     0  00:00        0.00
  JCT-1282             JUNCTION  -nan(ind)     0.00   990.29     0  00:00        0.00
  JCT-1284             JUNCTION  -nan(ind)     0.00   990.70     0  00:00        0.00
  JCT-1286             JUNCTION  -nan(ind)     0.00   991.49     0  00:00        0.00
  JCT-1288             JUNCTION  -nan(ind)     0.00   991.96     0  00:00        0.00
  JCT-1290             JUNCTION  -nan(ind)     0.00   992.86     0  00:00        0.00
  JCT-1292             JUNCTION  -nan(ind)     0.00   987.80     0  00:00        0.00
  JCT-1294             JUNCTION  -nan(ind)     0.00   985.39     0  00:00        0.00
  JCT-1296             JUNCTION  -nan(ind)     0.00   986.48     0  00:00        0.00
  JCT-1298             JUNCTION  -nan(ind)     0.00   991.55     0  00:00        0.00
  JCT-130              JUNCTION  -nan(ind)     0.00   977.88     0  00:00        0.00
  JCT-1300             JUNCTION  -nan(ind)     0.00   989.02     0  00:00        0.00
  JCT-1302             JUNCTION  -nan(ind)     0.00   990.59     0  00:00        0.00
  JCT-1304             JUNCTION  -nan(ind)     0.00   991.07     0  00:00        0.00
  JCT-1306             JUNCTION  -nan(ind)     0.00   992.68     0  00:00        0.00
  JCT-1308             JUNCTION  -nan(ind)     0.00   993.75     0  00:00        0.00
  JCT-1310             JUNCTION  -nan(ind)     0.00   986.34     0  00:00        0.00
  JCT-1312             JUNCTION  -nan(ind)     0.00   987.60     0  00:00        0.00
  JCT-1314             JUNCTION  -nan(ind)     0.00   989.07     0  00:00        0.00
  JCT-1316             JUNCTION  -nan(ind)     0.00   990.29     0  00:00        0.00
  JCT-1318             JUNCTION  -nan(ind)     0.00   992.81     0  00:00        0.00
  JCT-132              JUNCTION  -nan(ind)     0.00   976.42     0  00:00        0.00
  JCT-1320             JUNCTION  -nan(ind)     0.00   983.71     0  00:00        0.00
  JCT-1322             JUNCTION  -nan(ind)     0.00   966.39     0  00:00        0.00
  JCT-1324             JUNCTION  -nan(ind)     0.00   966.39     0  00:00        0.00
  JCT-1326             JUNCTION  -nan(ind)     0.00   957.43     0  00:00        0.00
  JCT-1328             JUNCTION  -nan(ind)     0.00   965.89     0  00:00        0.00
  JCT-1330             JUNCTION  -nan(ind)     0.00  1001.60     0  00:00        0.00
  JCT-1332             JUNCTION  -nan(ind)     0.00  1001.05     0  00:00        0.00
  JCT-1334             JUNCTION  -nan(ind)     0.00  1000.46     0  00:00        0.00
  JCT-1336             JUNCTION  -nan(ind)     0.00   999.43     0  00:00        0.00
  JCT-1338             JUNCTION  -nan(ind)     0.00   989.42     0  00:00        0.00
  JCT-134              JUNCTION  -nan(ind)     0.00   969.56     0  00:00        0.00
  JCT-1340             JUNCTION  -nan(ind)     0.00   987.98     0  00:00        0.00
  JCT-1342             JUNCTION  -nan(ind)     0.00   995.35     0  00:00        0.00
  JCT-1344             JUNCTION  -nan(ind)     0.00   998.53     0  00:00        0.00
  JCT-1346             JUNCTION  -nan(ind)     0.00   989.61     0  00:00        0.00
  JCT-1348             JUNCTION  -nan(ind)     0.00   987.00     0  00:00        0.00
  JCT-1352             JUNCTION  -nan(ind)     0.00   984.67     0  00:00        0.00
  JCT-1354             JUNCTION  -nan(ind)     0.00   975.77     0  00:00        0.00
  JCT-1356             JUNCTION  -nan(ind)     0.00   966.94     0  00:00        0.00
  JCT-1358             JUNCTION  -nan(ind)     0.00   955.25     0  00:00        0.00
  JCT-136              JUNCTION  -nan(ind)     0.00   969.84     0  00:00        0.00
  JCT-1360             JUNCTION  -nan(ind)     0.00   957.75     0  00:00        0.00
  JCT-1362             JUNCTION  -nan(ind)     0.00   956.44     0  00:00        0.00
  JCT-1364             JUNCTION  -nan(ind)     0.00   956.11     0  00:00        0.00
  JCT-1366             JUNCTION  -nan(ind)     0.00   953.36     0  00:00        0.00
  JCT-1368             JUNCTION  -nan(ind)     0.00   953.49     0  00:00        0.00
  JCT-1370             JUNCTION  -nan(ind)     0.00   975.55     0  00:00        0.00
  JCT-1372             JUNCTION  -nan(ind)     0.00   976.07     0  00:00        0.00
  JCT-1374             JUNCTION  -nan(ind)     0.00   953.40     0  00:00        0.00
  JCT-1376             JUNCTION  -nan(ind)     0.00   954.58     0  00:00        0.00
  JCT-1378             JUNCTION  -nan(ind)     0.00   954.19     0  00:00        0.00
  JCT-138              JUNCTION  -nan(ind)     0.00   972.75     0  00:00        0.00
  JCT-1380             JUNCTION  -nan(ind)     0.00   953.91     0  00:00        0.00
  JCT-1382             JUNCTION  -nan(ind)     0.00   953.82     0  00:00        0.00
  JCT-1384             JUNCTION  -nan(ind)     0.00   955.21     0  00:00        0.00
  JCT-1386             JUNCTION  -nan(ind)     0.00   953.80     0  00:00        0.00
  JCT-1388             JUNCTION  -nan(ind)     0.00   955.35     0  00:00        0.00
  JCT-1390             JUNCTION  -nan(ind)     0.00   953.93     0  00:00        0.00
  JCT-1392             JUNCTION  -nan(ind)     0.00   987.15     0  00:00        0.00
  JCT-1394             JUNCTION  -nan(ind)     0.00   986.50     0  00:00        0.00
  JCT-1396             JUNCTION  -nan(ind)     0.00   962.25     0  00:00        0.00
  JCT-1398             JUNCTION  -nan(ind)     0.00   964.00     0  00:00        0.00
  JCT-14               JUNCTION  -nan(ind)     0.00   963.62     0  00:00        0.00
  JCT-140              JUNCTION  -nan(ind)     0.00   974.08     0  00:00        0.00
  JCT-1402             JUNCTION  -nan(ind)     0.00   966.60     0  00:00        0.00
  JCT-1404             JUNCTION  -nan(ind)     0.00   970.00     0  00:00        0.00
  JCT-1406             JUNCTION  -nan(ind)     0.00   971.40     0  00:00        0.00
  JCT-1408             JUNCTION  -nan(ind)     0.00   973.00     0  00:00        0.00
  JCT-1410             JUNCTION  -nan(ind)     0.00   974.78     0  00:00        0.00
  JCT-1412             JUNCTION  -nan(ind)     0.00   977.38     0  00:00        0.00
  JCT-1416             JUNCTION  -nan(ind)     0.00   979.75     0  00:00        0.00
  JCT-1418             JUNCTION  -nan(ind)     0.00   981.20     0  00:00        0.00
  JCT-142              JUNCTION  -nan(ind)     0.00   972.93     0  00:00        0.00
  JCT-1420             JUNCTION  -nan(ind)     0.00   982.80     0  00:00        0.00
  JCT-1422             JUNCTION  -nan(ind)     0.00   984.60     0  00:00        0.00
  JCT-1426             JUNCTION  -nan(ind)     0.00   985.80     0  00:00        0.00
  JCT-1428             JUNCTION  -nan(ind)     0.00   979.45     0  00:00        0.00
  JCT-1432             JUNCTION  -nan(ind)     0.00   979.96     0  00:00        0.00
  JCT-1438             JUNCTION  -nan(ind)     0.00   981.90     0  00:00        0.00
  JCT-144              JUNCTION  -nan(ind)     0.00   969.12     0  00:00        0.00
  JCT-1440             JUNCTION  -nan(ind)     0.00   981.67     0  00:00        0.00
  JCT-1442             JUNCTION  -nan(ind)     0.00   981.26     0  00:00        0.00
  JCT-1444             JUNCTION  -nan(ind)     0.00   980.85     0  00:00        0.00
  JCT-1446             JUNCTION  -nan(ind)     0.00   980.25     0  00:00        0.00
  JCT-1448             JUNCTION  -nan(ind)     0.00   980.06     0  00:00        0.00
  JCT-1450             JUNCTION  -nan(ind)     0.00   979.78     0  00:00        0.00
  JCT-1452             JUNCTION  -nan(ind)     0.00   996.38     0  00:00        0.00
  JCT-1454             JUNCTION  -nan(ind)     0.00   999.35     0  00:00        0.00
  JCT-1456             JUNCTION  -nan(ind)     0.00  1006.60     0  00:00        0.00
  JCT-1458             JUNCTION  -nan(ind)     0.00  1001.80     0  00:00        0.00
  JCT-146              JUNCTION  -nan(ind)     0.00   961.02     0  00:00        0.00
  JCT-1460             JUNCTION  -nan(ind)     0.00  1010.30     0  00:00        0.00
  JCT-1462             JUNCTION  -nan(ind)     0.00  1005.80     0  00:00        0.00
  JCT-1464             JUNCTION  -nan(ind)     0.00   983.49     0  00:00        0.00
  JCT-1466             JUNCTION  -nan(ind)     0.00   986.59     0  00:00        0.00
  JCT-1468             JUNCTION  -nan(ind)     0.00   996.83     0  00:00        0.00
  JCT-1470             JUNCTION  -nan(ind)     0.00   993.03     0  00:00        0.00
  JCT-1472             JUNCTION  -nan(ind)     0.00   991.89     0  00:00        0.00
  JCT-1474             JUNCTION  -nan(ind)     0.00   990.71     0  00:00        0.00
  JCT-1476             JUNCTION  -nan(ind)     0.00   990.38     0  00:00        0.00
  JCT-1478             JUNCTION  -nan(ind)     0.00   989.73     0  00:00        0.00
  JCT-148              JUNCTION  -nan(ind)     0.00   962.10     0  00:00        0.00
  JCT-1480             JUNCTION  -nan(ind)     0.00   995.30     0  00:00        0.00
  JCT-1482             JUNCTION  -nan(ind)     0.00   993.49     0  00:00        0.00
  JCT-1484             JUNCTION  -nan(ind)     0.00   992.33     0  00:00        0.00
  JCT-1486             JUNCTION  -nan(ind)     0.00   992.77     0  00:00        0.00
  JCT-1488             JUNCTION  -nan(ind)     0.00   992.60     0  00:00        0.00
  JCT-1490             JUNCTION  -nan(ind)     0.00   992.00     0  00:00        0.00
  JCT-1492             JUNCTION  -nan(ind)     0.00   991.50     0  00:00        0.00
  JCT-1494             JUNCTION  -nan(ind)     0.00   992.40     0  00:00        0.00
  JCT-1496             JUNCTION  -nan(ind)     0.00   989.40     0  00:00        0.00
  JCT-1498             JUNCTION  -nan(ind)     0.00   996.83     0  00:00        0.00
  JCT-150              JUNCTION  -nan(ind)     0.00   962.49     0  00:00        0.00
  JCT-1500             JUNCTION  -nan(ind)     0.00   994.20     0  00:00        0.00
  JCT-1502             JUNCTION  -nan(ind)     0.00   996.60     0  00:00        0.00
  JCT-1504             JUNCTION  -nan(ind)     0.00  1003.50     0  00:00        0.00
  JCT-1506             JUNCTION  -nan(ind)     0.00  1004.30     0  00:00        0.00
  JCT-1508             JUNCTION  -nan(ind)     0.00  1005.70     0  00:00        0.00
  JCT-1510             JUNCTION  -nan(ind)     0.00  1008.40     0  00:00        0.00
  JCT-1512             JUNCTION  -nan(ind)     0.00  1005.70     0  00:00        0.00
  JCT-1514             JUNCTION  -nan(ind)     0.00  1008.30     0  00:00        0.00
  JCT-1516             JUNCTION  -nan(ind)     0.00   996.40     0  00:00        0.00
  JCT-1518             JUNCTION  -nan(ind)     0.00   996.34     0  00:00        0.00
  JCT-152              JUNCTION  -nan(ind)     0.00   963.75     0  00:00        0.00
  JCT-1520             JUNCTION  -nan(ind)     0.00  1002.60     0  00:00        0.00
  JCT-1522             JUNCTION  -nan(ind)     0.00   995.88     0  00:00        0.00
  JCT-1524             JUNCTION  -nan(ind)     0.00   992.61     0  00:00        0.00
  JCT-1526             JUNCTION  -nan(ind)     0.00   990.27     0  00:00        0.00
  JCT-1528             JUNCTION  -nan(ind)     0.00   989.09     0  00:00        0.00
  JCT-1530             JUNCTION  -nan(ind)     0.00   987.98     0  00:00        0.00
  JCT-1532             JUNCTION  -nan(ind)     0.00   991.99     0  00:00        0.00
  JCT-1534             JUNCTION  -nan(ind)     0.00   988.00     0  00:00        0.00
  JCT-1536             JUNCTION  -nan(ind)     0.00   992.94     0  00:00        0.00
  JCT-1538             JUNCTION  -nan(ind)     0.00   991.48     0  00:00        0.00
  JCT-154              JUNCTION  -nan(ind)     0.00   965.38     0  00:00        0.00
  JCT-1540             JUNCTION  -nan(ind)     0.00   994.90     0  00:00        0.00
  JCT-1542             JUNCTION  -nan(ind)     0.00   990.20     0  00:00        0.00
  JCT-1544             JUNCTION  -nan(ind)     0.00   989.78     0  00:00        0.00
  JCT-1546             JUNCTION  -nan(ind)     0.00   984.50     0  00:00        0.00
  JCT-1548             JUNCTION  -nan(ind)     0.00   985.77     0  00:00        0.00
  JCT-1550             JUNCTION  -nan(ind)     0.00   994.05     0  00:00        0.00
  JCT-1552             JUNCTION  -nan(ind)     0.00  1000.31     0  00:00        0.00
  JCT-1554             JUNCTION  -nan(ind)     0.00  1000.14     0  00:00        0.00
  JCT-1556             JUNCTION  -nan(ind)     0.00   993.80     0  00:00        0.00
  JCT-1558             JUNCTION  -nan(ind)     0.00   990.92     0  00:00        0.00
  JCT-156              JUNCTION  -nan(ind)     0.00   965.66     0  00:00        0.00
  JCT-1560             JUNCTION  -nan(ind)     0.00   990.72     0  00:00        0.00
  JCT-1562             JUNCTION  -nan(ind)     0.00   991.15     0  00:00        0.00
  JCT-1564             JUNCTION  -nan(ind)     0.00   992.47     0  00:00        0.00
  JCT-1566             JUNCTION  -nan(ind)     0.00   993.69     0  00:00        0.00
  JCT-1568             JUNCTION  -nan(ind)     0.00   991.68     0  00:00        0.00
  JCT-1570             JUNCTION  -nan(ind)     0.00   994.53     0  00:00        0.00
  JCT-1572             JUNCTION  -nan(ind)     0.00   998.64     0  00:00        0.00
  JCT-1574             JUNCTION  -nan(ind)     0.00   981.76     0  00:00        0.00
  JCT-1576             JUNCTION  -nan(ind)     0.00   978.47     0  00:00        0.00
  JCT-1578             JUNCTION  -nan(ind)     0.00   978.01     0  00:00        0.00
  JCT-158              JUNCTION  -nan(ind)     0.00   966.26     0  00:00        0.00
  JCT-1580             JUNCTION  -nan(ind)     0.00   977.18     0  00:00        0.00
  JCT-1582             JUNCTION  -nan(ind)     0.00   976.25     0  00:00        0.00
  JCT-1584             JUNCTION  -nan(ind)     0.00   981.04     0  00:00        0.00
  JCT-1586             JUNCTION  -nan(ind)     0.00   981.24     0  00:00        0.00
  JCT-1588             JUNCTION  -nan(ind)     0.00   984.17     0  00:00        0.00
  JCT-1590             JUNCTION  -nan(ind)     0.00   982.08     0  00:00        0.00
  JCT-1592             JUNCTION  -nan(ind)     0.00   985.23     0  00:00        0.00
  JCT-1594             JUNCTION  -nan(ind)     0.00   997.09     0  00:00        0.00
  JCT-1596             JUNCTION  -nan(ind)     0.00   964.74     0  00:00        0.00
  JCT-1598             JUNCTION  -nan(ind)     0.00   992.04     0  00:00        0.00
  JCT-16               JUNCTION  -nan(ind)     0.00   963.81     0  00:00        0.00
  JCT-160              JUNCTION  -nan(ind)     0.00   967.53     0  00:00        0.00
  JCT-1600             JUNCTION  -nan(ind)     0.00   993.37     0  00:00        0.00
  JCT-1602             JUNCTION  -nan(ind)     0.00   972.60     0  00:00        0.00
  JCT-1604             JUNCTION  -nan(ind)     0.00   967.21     0  00:00        0.00
  JCT-1606             JUNCTION  -nan(ind)     0.00   966.80     0  00:00        0.00
  JCT-1608             JUNCTION  -nan(ind)     0.00   973.72     0  00:00        0.00
  JCT-1610             JUNCTION  -nan(ind)     0.00   978.21     0  00:00        0.00
  JCT-1612             JUNCTION  -nan(ind)     0.00   983.82     0  00:00        0.00
  JCT-1614             JUNCTION  -nan(ind)     0.00   973.60     0  00:00        0.00
  JCT-1616             JUNCTION  -nan(ind)     0.00   972.46     0  00:00        0.00
  JCT-1618             JUNCTION  -nan(ind)     0.00   965.74     0  00:00        0.00
  JCT-162              JUNCTION  -nan(ind)     0.00   970.29     0  00:00        0.00
  JCT-1620             JUNCTION  -nan(ind)     0.00   968.67     0  00:00        0.00
  JCT-1622             JUNCTION  -nan(ind)     0.00   966.70     0  00:00        0.00
  JCT-1624             JUNCTION  -nan(ind)     0.00   967.10     0  00:00        0.00
  JCT-1626             JUNCTION  -nan(ind)     0.00   966.33     0  00:00        0.00
  JCT-1628             JUNCTION  -nan(ind)     0.00   953.10     0  00:00        0.00
  JCT-1630             JUNCTION  -nan(ind)     0.00   952.85     0  00:00        0.00
  JCT-1632             JUNCTION  -nan(ind)     0.00   961.01     0  00:00        0.00
  JCT-1634             JUNCTION  -nan(ind)     0.00   962.68     0  00:00        0.00
  JCT-1636             JUNCTION  -nan(ind)     0.00   959.23     0  00:00        0.00
  JCT-164              JUNCTION  -nan(ind)     0.00   968.90     0  00:00        0.00
  JCT-1640             JUNCTION  -nan(ind)     0.00   958.22     0  00:00        0.00
  JCT-1642             JUNCTION  -nan(ind)     0.00   962.35     0  00:00        0.00
  JCT-1646             JUNCTION  -nan(ind)     0.00   963.25     0  00:00        0.00
  JCT-1658             JUNCTION  -nan(ind)     0.00   989.51     0  00:00        0.00
  JCT-166              JUNCTION  -nan(ind)     0.00   967.25     0  00:00        0.00
  JCT-1660             JUNCTION  -nan(ind)     0.00   978.43     0  00:00        0.00
  JCT-1662             JUNCTION  -nan(ind)     0.00   961.98     0  00:00        0.00
  JCT-1664             JUNCTION  -nan(ind)     0.00   978.82     0  00:00        0.00
  JCT-1666             JUNCTION  -nan(ind)     0.00   960.80     0  00:00        0.00
  JCT-1668             JUNCTION  -nan(ind)     0.00   959.70     0  00:00        0.00
  JCT-1670             JUNCTION  -nan(ind)     0.00   957.10     0  00:00        0.00
  JCT-1672             JUNCTION  -nan(ind)     0.00   993.53     0  00:00        0.00
  JCT-1678             JUNCTION  -nan(ind)     0.00   990.48     0  00:00        0.00
  JCT-168              JUNCTION  -nan(ind)     0.00   967.71     0  00:00        0.00
  JCT-1680             JUNCTION  -nan(ind)     0.00   989.44     0  00:00        0.00
  JCT-1682             JUNCTION  -nan(ind)     0.00   955.52     0  00:00        0.00
  JCT-1684             JUNCTION  -nan(ind)     0.00   954.41     0  00:00        0.00
  JCT-1686             JUNCTION  -nan(ind)     0.00   985.14     0  00:00        0.00
  JCT-1688             JUNCTION  -nan(ind)     0.00   979.97     0  00:00        0.00
  JCT-1690             JUNCTION  -nan(ind)     0.00   985.43     0  00:00        0.00
  JCT-1692             JUNCTION  -nan(ind)     0.00   981.44     0  00:00        0.00
  JCT-1694             JUNCTION  -nan(ind)     0.00   985.80     0  00:00        0.00
  JCT-1696             JUNCTION  -nan(ind)     0.00   969.84     0  00:00        0.00
  JCT-1698             JUNCTION  -nan(ind)     0.00   964.48     0  00:00        0.00
  JCT-170              JUNCTION  -nan(ind)     0.00   968.37     0  00:00        0.00
  JCT-1706             JUNCTION  -nan(ind)     0.00  1005.58     0  00:00        0.00
  JCT-1708             JUNCTION  -nan(ind)     0.00  1010.52     0  00:00        0.00
  JCT-1710             JUNCTION  -nan(ind)     0.00  1012.09     0  00:00        0.00
  JCT-1712             JUNCTION  -nan(ind)     0.00  1012.47     0  00:00        0.00
  JCT-1714             JUNCTION  -nan(ind)     0.00  1012.97     0  00:00        0.00
  JCT-172              JUNCTION  -nan(ind)     0.00   968.62     0  00:00        0.00
  JCT-1720             JUNCTION  -nan(ind)     0.00   951.30     0  00:00        0.00
  JCT-1730             JUNCTION  -nan(ind)     0.00   984.14     0  00:00        0.00
  JCT-1732             JUNCTION  -nan(ind)     0.00   993.63     0  00:00        0.00
  JCT-1734             JUNCTION  -nan(ind)     0.00   981.10     0  00:00        0.00
  JCT-1736             JUNCTION  -nan(ind)     0.00   971.25     0  00:00        0.00
  JCT-1738             JUNCTION  -nan(ind)     0.00   964.00     0  00:00        0.00
  JCT-174              JUNCTION  -nan(ind)     0.00   968.87     0  00:00        0.00
  JCT-1740             JUNCTION  -nan(ind)     0.00   975.59     0  00:00        0.00
  JCT-1742             JUNCTION  -nan(ind)     0.00   980.20     0  00:00        0.00
  JCT-1744             JUNCTION  -nan(ind)     0.00   960.40     0  00:00        0.00
  JCT-1746             JUNCTION  -nan(ind)     0.00   975.40     0  00:00        0.00
  JCT-1748             JUNCTION  -nan(ind)     0.00   984.62     0  00:00        0.00
  JCT-1752             JUNCTION  -nan(ind)     0.00  1013.21     0  00:00        0.00
  JCT-1754             JUNCTION  -nan(ind)     0.00  1013.73     0  00:00        0.00
  JCT-1756             JUNCTION  -nan(ind)     0.00  1014.39     0  00:00        0.00
  JCT-1758             JUNCTION  -nan(ind)     0.00  1014.57     0  00:00        0.00
  JCT-176              JUNCTION  -nan(ind)     0.00   969.40     0  00:00        0.00
  JCT-1760             JUNCTION  -nan(ind)     0.00  1016.20     0  00:00        0.00
  JCT-1762             JUNCTION  -nan(ind)     0.00   965.86     0  00:00        0.00
  JCT-1764             JUNCTION  -nan(ind)     0.00   964.51     0  00:00        0.00
  JCT-1766             JUNCTION  -nan(ind)     0.00   953.02     0  00:00        0.00
  JCT-1768             JUNCTION  -nan(ind)     0.00   963.25     0  00:00        0.00
  JCT-1774             JUNCTION  -nan(ind)     0.00   973.25     0  00:00        0.00
  JCT-1776             JUNCTION  -nan(ind)     0.00   940.20     0  00:00        0.00
  JCT-1778             JUNCTION  -nan(ind)     0.00  1044.14     0  00:00        0.00
  JCT-178              JUNCTION  -nan(ind)     0.00   970.28     0  00:00        0.00
  JCT-1780             JUNCTION  -nan(ind)     0.00   984.42     0  00:00        0.00
  JCT-1782             JUNCTION  -nan(ind)     0.00   992.38     0  00:00        0.00
  JCT-1784             JUNCTION  -nan(ind)     0.00   988.92     0  00:00        0.00
  JCT-1786             JUNCTION  -nan(ind)     0.00   958.94     0  00:00        0.00
  JCT-1788             JUNCTION  -nan(ind)     0.00   941.60     0  00:00        0.00
  JCT-1790             JUNCTION  -nan(ind)     0.00   970.10     0  00:00        0.00
  JCT-1792             JUNCTION  -nan(ind)     0.00  1002.30     0  00:00        0.00
  JCT-1794             JUNCTION  -nan(ind)     0.00   988.09     0  00:00        0.00
  JCT-1796             JUNCTION  -nan(ind)     0.00   976.66     0  00:00        0.00
  JCT-18               JUNCTION  -nan(ind)     0.00   957.92     0  00:00        0.00
  JCT-180              JUNCTION  -nan(ind)     0.00   971.01     0  00:00        0.00
  JCT-1800             JUNCTION  -nan(ind)     0.00   989.38     0  00:00        0.00
  JCT-1802             JUNCTION  -nan(ind)     0.00   988.90     0  00:00        0.00
  JCT-1804             JUNCTION  -nan(ind)     0.00  1004.93     0  00:00        0.00
  JCT-1806             JUNCTION  -nan(ind)     0.00   981.62     0  00:00        0.00
  JCT-1808             JUNCTION  -nan(ind)     0.00   982.50     0  00:00        0.00
  JCT-1810             JUNCTION  -nan(ind)     0.00   989.20     0  00:00        0.00
  JCT-1812             JUNCTION  -nan(ind)     0.00   989.03     0  00:00        0.00
  JCT-1814             JUNCTION  -nan(ind)     0.00   986.27     0  00:00        0.00
  JCT-1816             JUNCTION  -nan(ind)     0.00   982.12     0  00:00        0.00
  JCT-1818             JUNCTION  -nan(ind)     0.00   990.11     0  00:00        0.00
  JCT-182              JUNCTION  -nan(ind)     0.00   971.81     0  00:00        0.00
  JCT-1822             JUNCTION  -nan(ind)     0.00   971.46     0  00:00        0.00
  JCT-1824             JUNCTION  -nan(ind)     0.00   989.79     0  00:00        0.00
  JCT-1826             JUNCTION  -nan(ind)     0.00   992.89     0  00:00        0.00
  JCT-1828             JUNCTION  -nan(ind)     0.00   993.17     0  00:00        0.00
  JCT-1832             JUNCTION  -nan(ind)     0.00   960.11     0  00:00        0.00
  JCT-1834             JUNCTION  -nan(ind)     0.00   969.10     0  00:00        0.00
  JCT-1836             JUNCTION  -nan(ind)     0.00   978.25     0  00:00        0.00
  JCT-184              JUNCTION  -nan(ind)     0.00   970.46     0  00:00        0.00
  JCT-1842             JUNCTION  -nan(ind)     0.00   958.97     0  00:00        0.00
  JCT-1844             JUNCTION  -nan(ind)     0.00   989.68     0  00:00        0.00
  JCT-1846             JUNCTION  -nan(ind)     0.00   980.45     0  00:00        0.00
  JCT-1848             JUNCTION  -nan(ind)     0.00   987.45     0  00:00        0.00
  JCT-1850             JUNCTION  -nan(ind)     0.00   990.73     0  00:00        0.00
  JCT-1852             JUNCTION  -nan(ind)     0.00   989.14     0  00:00        0.00
  JCT-1854             JUNCTION  -nan(ind)     0.00   986.52     0  00:00        0.00
  JCT-1856             JUNCTION  -nan(ind)     0.00   972.44     0  00:00        0.00
  JCT-1858             JUNCTION  -nan(ind)     0.00   970.89     0  00:00        0.00
  JCT-186              JUNCTION  -nan(ind)     0.00   968.92     0  00:00        0.00
  JCT-1860             JUNCTION  -nan(ind)     0.00   987.07     0  00:00        0.00
  JCT-1862             JUNCTION  -nan(ind)     0.00   980.23     0  00:00        0.00
  JCT-1864             JUNCTION  -nan(ind)     0.00   979.19     0  00:00        0.00
  JCT-1866             JUNCTION  -nan(ind)     0.00   979.31     0  00:00        0.00
  JCT-1870             JUNCTION  -nan(ind)     0.00   999.59     0  00:00        0.00
  JCT-1872             JUNCTION  -nan(ind)     0.00   991.68     0  00:00        0.00
  JCT-1874             JUNCTION  -nan(ind)     0.00  1008.60     0  00:00        0.00
  JCT-1876             JUNCTION  -nan(ind)     0.00   984.04     0  00:00        0.00
  JCT-1878             JUNCTION  -nan(ind)     0.00   985.75     0  00:00        0.00
  JCT-188              JUNCTION  -nan(ind)     0.00   969.93     0  00:00        0.00
  JCT-1880             JUNCTION  -nan(ind)     0.00   988.18     0  00:00        0.00
  JCT-1882             JUNCTION  -nan(ind)     0.00   998.84     0  00:00        0.00
  JCT-1884             JUNCTION  -nan(ind)     0.00   992.71     0  00:00        0.00
  JCT-1886             JUNCTION  -nan(ind)     0.00   982.24     0  00:00        0.00
  JCT-1888             JUNCTION  -nan(ind)     0.00  1023.18     0  00:00        0.00
  JCT-1890             JUNCTION  -nan(ind)     0.00  1001.86     0  00:00        0.00
  JCT-1892             JUNCTION  -nan(ind)     0.00  1001.86     0  00:00        0.00
  JCT-1894             JUNCTION  -nan(ind)     0.00   991.19     0  00:00        0.00
  JCT-1896             JUNCTION  -nan(ind)     0.00   962.55     0  00:00        0.00
  JCT-1898             JUNCTION  -nan(ind)     0.00   962.88     0  00:00        0.00
  JCT-190              JUNCTION  -nan(ind)     0.00   967.15     0  00:00        0.00
  JCT-1900             JUNCTION  -nan(ind)     0.00   957.30     0  00:00        0.00
  JCT-1902             JUNCTION  -nan(ind)     0.00   957.30     0  00:00        0.00
  JCT-1904             JUNCTION  -nan(ind)     0.00   957.30     0  00:00        0.00
  JCT-1906             JUNCTION  -nan(ind)     0.00   967.28     0  00:00        0.00
  JCT-1908             JUNCTION  -nan(ind)     0.00   960.94     0  00:00        0.00
  JCT-1910             JUNCTION  -nan(ind)     0.00   961.00     0  00:00        0.00
  JCT-1912             JUNCTION  -nan(ind)     0.00   959.81     0  00:00        0.00
  JCT-1914             JUNCTION  -nan(ind)     0.00   977.00     0  00:00        0.00
  JCT-1916             JUNCTION  -nan(ind)     0.00   959.10     0  00:00        0.00
  JCT-1918             JUNCTION  -nan(ind)     0.00   978.65     0  00:00        0.00
  JCT-192              JUNCTION  -nan(ind)     0.00   966.16     0  00:00        0.00
  JCT-1920             JUNCTION  -nan(ind)     0.00   990.61     0  00:00        0.00
  JCT-1922             JUNCTION  -nan(ind)     0.00   980.78     0  00:00        0.00
  JCT-1926             JUNCTION  -nan(ind)     0.00  1011.02     0  00:00        0.00
  JCT-1928             JUNCTION  -nan(ind)     0.00  1011.22     0  00:00        0.00
  JCT-1930             JUNCTION  -nan(ind)     0.00   954.61     0  00:00        0.00
  JCT-1932             JUNCTION  -nan(ind)     0.00  1000.24     0  00:00        0.00
  JCT-1934             JUNCTION  -nan(ind)     0.00   996.48     0  00:00        0.00
  JCT-1936             JUNCTION  -nan(ind)     0.00   997.00     0  00:00        0.00
  JCT-1938             JUNCTION  -nan(ind)     0.00   991.47     0  00:00        0.00
  JCT-194              JUNCTION  -nan(ind)     0.00   965.31     0  00:00        0.00
  JCT-1940             JUNCTION  -nan(ind)     0.00   990.97     0  00:00        0.00
  JCT-1942             JUNCTION  -nan(ind)     0.00  1016.40     0  00:00        0.00
  JCT-1944             JUNCTION  -nan(ind)     0.00  1013.93     0  00:00        0.00
  JCT-1952             JUNCTION  -nan(ind)     0.00   951.69     0  00:00        0.00
  JCT-1958             JUNCTION  -nan(ind)     0.00   969.50     0  00:00        0.00
  JCT-196              JUNCTION  -nan(ind)     0.00   963.82     0  00:00        0.00
  JCT-1960             JUNCTION  -nan(ind)     0.00   960.80     0  00:00        0.00
  JCT-1962             JUNCTION  -nan(ind)     0.00   961.61     0  00:00        0.00
  JCT-198              JUNCTION  -nan(ind)     0.00  1025.35     0  00:00        0.00
  JCT-20               JUNCTION  -nan(ind)     0.00   978.44     0  00:00        0.00
  JCT-200              JUNCTION  -nan(ind)     0.00  1030.10     0  00:00        0.00
  JCT-202              JUNCTION  -nan(ind)     0.00  1028.54     0  00:00        0.00
  JCT-204              JUNCTION  -nan(ind)     0.00  1026.70     0  00:00        0.00
  JCT-206              JUNCTION  -nan(ind)     0.00  1024.04     0  00:00        0.00
  JCT-208              JUNCTION  -nan(ind)     0.00  1015.65     0  00:00        0.00
  JCT-2090             JUNCTION  -nan(ind)     0.00   967.00     0  00:00        0.00
  JCT-2092             JUNCTION  -nan(ind)     0.00   956.00     0  00:00        0.00
  JCT-2094             JUNCTION  -nan(ind)     0.00   945.00     0  00:00        0.00
  JCT-2096             JUNCTION  -nan(ind)     0.00   934.00     0  00:00        0.00
  JCT-210              JUNCTION  -nan(ind)     0.00  1016.39     0  00:00        0.00
  JCT-212              JUNCTION  -nan(ind)     0.00  1015.70     0  00:00        0.00
  JCT-214              JUNCTION  -nan(ind)     0.00  1025.61     0  00:00        0.00
  JCT-216              JUNCTION  -nan(ind)     0.00  1025.00     0  00:00        0.00
  JCT-218              JUNCTION  -nan(ind)     0.00  1023.50     0  00:00        0.00
  JCT-22               JUNCTION  -nan(ind)     0.00   976.00     0  00:00        0.00
  JCT-220              JUNCTION  -nan(ind)     0.00  1013.53     0  00:00        0.00
  JCT-222              JUNCTION  -nan(ind)     0.00  1012.20     0  00:00        0.00
  JCT-224              JUNCTION  -nan(ind)     0.00  1011.43     0  00:00        0.00
  JCT-226              JUNCTION  -nan(ind)     0.00  1010.47     0  00:00        0.00
  JCT-228              JUNCTION  -nan(ind)     0.00  1007.21     0  00:00        0.00
  JCT-230              JUNCTION  -nan(ind)     0.00  1005.29     0  00:00        0.00
  JCT-232              JUNCTION  -nan(ind)     0.00   997.40     0  00:00        0.00
  JCT-234              JUNCTION  -nan(ind)     0.00   999.13     0  00:00        0.00
  JCT-236              JUNCTION  -nan(ind)     0.00  1000.77     0  00:00        0.00
  JCT-238              JUNCTION  -nan(ind)     0.00  1002.98     0  00:00        0.00
  JCT-24               JUNCTION  -nan(ind)     0.00   960.50     0  00:00        0.00
  JCT-240              JUNCTION  -nan(ind)     0.00   998.43     0  00:00        0.00
  JCT-242              JUNCTION  -nan(ind)     0.00   999.13     0  00:00        0.00
  JCT-244              JUNCTION  -nan(ind)     0.00  1003.17     0  00:00        0.00
  JCT-246              JUNCTION  -nan(ind)     0.00  1016.69     0  00:00        0.00
  JCT-248              JUNCTION  -nan(ind)     0.00  1018.37     0  00:00        0.00
  JCT-250              JUNCTION  -nan(ind)     0.00  1018.72     0  00:00        0.00
  JCT-252              JUNCTION  -nan(ind)     0.00  1017.84     0  00:00        0.00
  JCT-254              JUNCTION  -nan(ind)     0.00  1017.20     0  00:00        0.00
  JCT-256              JUNCTION  -nan(ind)     0.00  1016.51     0  00:00        0.00
  JCT-258              JUNCTION  -nan(ind)     0.00  1014.94     0  00:00        0.00
  JCT-26               JUNCTION  -nan(ind)     0.00   961.40     0  00:00        0.00
  JCT-260              JUNCTION  -nan(ind)     0.00  1021.14     0  00:00        0.00
  JCT-262              JUNCTION  -nan(ind)     0.00  1019.92     0  00:00        0.00
  JCT-264              JUNCTION  -nan(ind)     0.00  1027.00     0  00:00        0.00
  JCT-266              JUNCTION  -nan(ind)     0.00  1019.09     0  00:00        0.00
  JCT-268              JUNCTION  -nan(ind)     0.00  1017.63     0  00:00        0.00
  JCT-270              JUNCTION  -nan(ind)     0.00  1018.64     0  00:00        0.00
  JCT-272              JUNCTION  -nan(ind)     0.00  1020.03     0  00:00        0.00
  JCT-274              JUNCTION  -nan(ind)     0.00  1016.73     0  00:00        0.00
  JCT-276              JUNCTION  -nan(ind)     0.00  1016.14     0  00:00        0.00
  JCT-278              JUNCTION  -nan(ind)     0.00  1012.19     0  00:00        0.00
  JCT-28               JUNCTION  -nan(ind)     0.00   955.49     0  00:00        0.00
  JCT-280              JUNCTION  -nan(ind)     0.00  1013.00     0  00:00        0.00
  JCT-282              JUNCTION  -nan(ind)     0.00  1016.04     0  00:00        0.00
  JCT-284              JUNCTION  -nan(ind)     0.00  1010.12     0  00:00        0.00
  JCT-286              JUNCTION  -nan(ind)     0.00  1008.26     0  00:00        0.00
  JCT-288              JUNCTION  -nan(ind)     0.00  1014.48     0  00:00        0.00
  JCT-290              JUNCTION  -nan(ind)     0.00  1016.06     0  00:00        0.00
  JCT-292              JUNCTION  -nan(ind)     0.00  1013.70     0  00:00        0.00
  JCT-294              JUNCTION  -nan(ind)     0.00  1009.10     0  00:00        0.00
  JCT-296              JUNCTION  -nan(ind)     0.00  1005.89     0  00:00        0.00
  JCT-298              JUNCTION  -nan(ind)     0.00  1004.71     0  00:00        0.00
  JCT-30               JUNCTION  -nan(ind)     0.00   954.00     0  00:00        0.00
  JCT-300              JUNCTION  -nan(ind)     0.00  1003.72     0  00:00        0.00
  JCT-302              JUNCTION  -nan(ind)     0.00  1003.42     0  00:00        0.00
  JCT-304              JUNCTION  -nan(ind)     0.00  1001.87     0  00:00        0.00
  JCT-306              JUNCTION  -nan(ind)     0.00  1006.74     0  00:00        0.00
  JCT-308              JUNCTION  -nan(ind)     0.00  1000.04     0  00:00        0.00
  JCT-310              JUNCTION  -nan(ind)     0.00   995.06     0  00:00        0.00
  JCT-312              JUNCTION  -nan(ind)     0.00   993.43     0  00:00        0.00
  JCT-314              JUNCTION  -nan(ind)     0.00   991.40     0  00:00        0.00
  JCT-316              JUNCTION  -nan(ind)     0.00   991.21     0  00:00        0.00
  JCT-318              JUNCTION  -nan(ind)     0.00   990.57     0  00:00        0.00
  JCT-32               JUNCTION  -nan(ind)     0.00   952.25     0  00:00        0.00
  JCT-320              JUNCTION  -nan(ind)     0.00   993.97     0  00:00        0.00
  JCT-322              JUNCTION  -nan(ind)     0.00  1003.01     0  00:00        0.00
  JCT-324              JUNCTION  -nan(ind)     0.00   996.77     0  00:00        0.00
  JCT-326              JUNCTION  -nan(ind)     0.00  1006.96     0  00:00        0.00
  JCT-328              JUNCTION  -nan(ind)     0.00  1005.08     0  00:00        0.00
  JCT-330              JUNCTION  -nan(ind)     0.00  1006.35     0  00:00        0.00
  JCT-332              JUNCTION  -nan(ind)     0.00  1003.81     0  00:00        0.00
  JCT-334              JUNCTION  -nan(ind)     0.00   992.59     0  00:00        0.00
  JCT-336              JUNCTION  -nan(ind)     0.00   992.83     0  00:00        0.00
  JCT-338              JUNCTION  -nan(ind)     0.00   993.30     0  00:00        0.00
  JCT-34               JUNCTION  -nan(ind)     0.00   951.51     0  00:00        0.00
  JCT-340              JUNCTION  -nan(ind)     0.00   994.32     0  00:00        0.00
  JCT-342              JUNCTION  -nan(ind)     0.00   994.54     0  00:00        0.00
  JCT-344              JUNCTION  -nan(ind)     0.00   993.96     0  00:00        0.00
  JCT-346              JUNCTION  -nan(ind)     0.00   993.51     0  00:00        0.00
  JCT-348              JUNCTION  -nan(ind)     0.00  1009.71     0  00:00        0.00
  JCT-350              JUNCTION  -nan(ind)     0.00  1005.92     0  00:00        0.00
  JCT-352              JUNCTION  -nan(ind)     0.00   992.58     0  00:00        0.00
  JCT-354              JUNCTION  -nan(ind)     0.00   983.94     0  00:00        0.00
  JCT-356              JUNCTION  -nan(ind)     0.00   983.53     0  00:00        0.00
  JCT-358              JUNCTION  -nan(ind)     0.00   982.05     0  00:00        0.00
  JCT-36               JUNCTION  -nan(ind)     0.00   950.26     0  00:00        0.00
  JCT-360              JUNCTION  -nan(ind)     0.00   993.48     0  00:00        0.00
  JCT-362              JUNCTION  -nan(ind)     0.00   994.05     0  00:00        0.00
  JCT-364              JUNCTION  -nan(ind)     0.00   994.57     0  00:00        0.00
  JCT-366              JUNCTION  -nan(ind)     0.00   995.31     0  00:00        0.00
  JCT-368              JUNCTION  -nan(ind)     0.00   995.98     0  00:00        0.00
  JCT-370              JUNCTION  -nan(ind)     0.00  1001.75     0  00:00        0.00
  JCT-372              JUNCTION  -nan(ind)     0.00  1000.00     0  00:00        0.00
  JCT-374              JUNCTION  -nan(ind)     0.00   995.77     0  00:00        0.00
  JCT-376              JUNCTION  -nan(ind)     0.00   995.67     0  00:00        0.00
  JCT-378              JUNCTION  -nan(ind)     0.00   994.90     0  00:00        0.00
  JCT-38               JUNCTION  -nan(ind)     0.00   957.01     0  00:00        0.00
  JCT-380              JUNCTION  -nan(ind)     0.00   994.55     0  00:00        0.00
  JCT-382              JUNCTION  -nan(ind)     0.00   993.99     0  00:00        0.00
  JCT-384              JUNCTION  -nan(ind)     0.00   993.02     0  00:00        0.00
  JCT-386              JUNCTION  -nan(ind)     0.00   992.44     0  00:00        0.00
  JCT-388              JUNCTION  -nan(ind)     0.00   990.22     0  00:00        0.00
  JCT-390              JUNCTION  -nan(ind)     0.00   989.44     0  00:00        0.00
  JCT-392              JUNCTION  -nan(ind)     0.00   986.85     0  00:00        0.00
  JCT-394              JUNCTION  -nan(ind)     0.00   984.96     0  00:00        0.00
  JCT-396              JUNCTION  -nan(ind)     0.00   983.40     0  00:00        0.00
  JCT-398              JUNCTION  -nan(ind)     0.00   983.03     0  00:00        0.00
  JCT-40               JUNCTION  -nan(ind)     0.00   949.91     0  00:00        0.00
  JCT-400              JUNCTION  -nan(ind)     0.00   982.84     0  00:00        0.00
  JCT-402              JUNCTION  -nan(ind)     0.00   982.04     0  00:00        0.00
  JCT-404              JUNCTION  -nan(ind)     0.00   973.18     0  00:00        0.00
  JCT-406              JUNCTION  -nan(ind)     0.00   972.35     0  00:00        0.00
  JCT-408              JUNCTION  -nan(ind)     0.00   971.24     0  00:00        0.00
  JCT-410              JUNCTION  -nan(ind)     0.00   971.73     0  00:00        0.00
  JCT-412              JUNCTION  -nan(ind)     0.00   973.92     0  00:00        0.00
  JCT-414              JUNCTION  -nan(ind)     0.00   985.24     0  00:00        0.00
  JCT-416              JUNCTION  -nan(ind)     0.00   975.49     0  00:00        0.00
  JCT-418              JUNCTION  -nan(ind)     0.00   976.50     0  00:00        0.00
  JCT-42               JUNCTION  -nan(ind)     0.00   948.01     0  00:00        0.00
  JCT-420              JUNCTION  -nan(ind)     0.00   977.47     0  00:00        0.00
  JCT-422              JUNCTION  -nan(ind)     0.00   978.10     0  00:00        0.00
  JCT-424              JUNCTION  -nan(ind)     0.00   970.60     0  00:00        0.00
  JCT-426              JUNCTION  -nan(ind)     0.00   969.91     0  00:00        0.00
  JCT-428              JUNCTION  -nan(ind)     0.00   968.50     0  00:00        0.00
  JCT-430              JUNCTION  -nan(ind)     0.00   967.22     0  00:00        0.00
  JCT-432              JUNCTION  -nan(ind)     0.00   986.94     0  00:00        0.00
  JCT-434              JUNCTION  -nan(ind)     0.00   983.35     0  00:00        0.00
  JCT-436              JUNCTION  -nan(ind)     0.00   979.71     0  00:00        0.00
  JCT-438              JUNCTION  -nan(ind)     0.00   977.55     0  00:00        0.00
  JCT-44               JUNCTION  -nan(ind)     0.00   946.17     0  00:00        0.00
  JCT-440              JUNCTION  -nan(ind)     0.00   975.69     0  00:00        0.00
  JCT-442              JUNCTION  -nan(ind)     0.00   975.97     0  00:00        0.00
  JCT-444              JUNCTION  -nan(ind)     0.00   977.87     0  00:00        0.00
  JCT-446              JUNCTION  -nan(ind)     0.00   984.29     0  00:00        0.00
  JCT-448              JUNCTION  -nan(ind)     0.00   982.65     0  00:00        0.00
  JCT-450              JUNCTION  -nan(ind)     0.00   980.20     0  00:00        0.00
  JCT-452              JUNCTION  -nan(ind)     0.00   980.06     0  00:00        0.00
  JCT-454              JUNCTION  -nan(ind)     0.00   979.43     0  00:00        0.00
  JCT-456              JUNCTION  -nan(ind)     0.00   978.40     0  00:00        0.00
  JCT-458              JUNCTION  -nan(ind)     0.00   980.63     0  00:00        0.00
  JCT-46               JUNCTION  -nan(ind)     0.00   943.94     0  00:00        0.00
  JCT-460              JUNCTION  -nan(ind)     0.00   981.85     0  00:00        0.00
  JCT-462              JUNCTION  -nan(ind)     0.00   982.69     0  00:00        0.00
  JCT-464              JUNCTION  -nan(ind)     0.00   978.79     0  00:00        0.00
  JCT-466              JUNCTION  -nan(ind)     0.00   985.26     0  00:00        0.00
  JCT-468              JUNCTION  -nan(ind)     0.00   981.61     0  00:00        0.00
  JCT-470              JUNCTION  -nan(ind)     0.00   973.10     0  00:00        0.00
  JCT-472              JUNCTION  -nan(ind)     0.00   972.64     0  00:00        0.00
  JCT-474              JUNCTION  -nan(ind)     0.00   977.57     0  00:00        0.00
  JCT-476              JUNCTION  -nan(ind)     0.00   988.87     0  00:00        0.00
  JCT-478              JUNCTION  -nan(ind)     0.00   987.80     0  00:00        0.00
  JCT-48               JUNCTION  -nan(ind)     0.00   943.34     0  00:00        0.00
  JCT-480              JUNCTION  -nan(ind)     0.00   987.48     0  00:00        0.00
  JCT-482              JUNCTION  -nan(ind)     0.00  1015.68     0  00:00        0.00
  JCT-484              JUNCTION  -nan(ind)     0.00  1022.39     0  00:00        0.00
  JCT-486              JUNCTION  -nan(ind)     0.00  1034.71     0  00:00        0.00
  JCT-488              JUNCTION  -nan(ind)     0.00  1043.38     0  00:00        0.00
  JCT-490              JUNCTION  -nan(ind)     0.00  1040.57     0  00:00        0.00
  JCT-492              JUNCTION  -nan(ind)     0.00  1027.22     0  00:00        0.00
  JCT-494              JUNCTION  -nan(ind)     0.00  1025.17     0  00:00        0.00
  JCT-496              JUNCTION  -nan(ind)     0.00  1023.18     0  00:00        0.00
  JCT-498              JUNCTION  -nan(ind)     0.00  1022.96     0  00:00        0.00
  JCT-50               JUNCTION  -nan(ind)     0.00   942.74     0  00:00        0.00
  JCT-500              JUNCTION  -nan(ind)     0.00  1021.71     0  00:00        0.00
  JCT-502              JUNCTION  -nan(ind)     0.00  1020.90     0  00:00        0.00
  JCT-504              JUNCTION  -nan(ind)     0.00  1020.20     0  00:00        0.00
  JCT-506              JUNCTION  -nan(ind)     0.00  1018.51     0  00:00        0.00
  JCT-508              JUNCTION  -nan(ind)     0.00  1042.77     0  00:00        0.00
  JCT-510              JUNCTION  -nan(ind)     0.00  1041.13     0  00:00        0.00
  JCT-512              JUNCTION  -nan(ind)     0.00  1026.97     0  00:00        0.00
  JCT-514              JUNCTION  -nan(ind)     0.00  1005.38     0  00:00        0.00
  JCT-516              JUNCTION  -nan(ind)     0.00  1021.24     0  00:00        0.00
  JCT-518              JUNCTION  -nan(ind)     0.00  1019.27     0  00:00        0.00
  JCT-52               JUNCTION  -nan(ind)     0.00   942.26     0  00:00        0.00
  JCT-520              JUNCTION  -nan(ind)     0.00  1017.59     0  00:00        0.00
  JCT-522              JUNCTION  -nan(ind)     0.00  1042.63     0  00:00        0.00
  JCT-524              JUNCTION  -nan(ind)     0.00  1048.08     0  00:00        0.00
  JCT-526              JUNCTION  -nan(ind)     0.00  1037.62     0  00:00        0.00
  JCT-528              JUNCTION  -nan(ind)     0.00  1015.38     0  00:00        0.00
  JCT-530              JUNCTION  -nan(ind)     0.00  1007.91     0  00:00        0.00
  JCT-532              JUNCTION  -nan(ind)     0.00  1021.80     0  00:00        0.00
  JCT-534              JUNCTION  -nan(ind)     0.00  1023.86     0  00:00        0.00
  JCT-536              JUNCTION  -nan(ind)     0.00  1020.83     0  00:00        0.00
  JCT-538              JUNCTION  -nan(ind)     0.00  1020.86     0  00:00        0.00
  JCT-54               JUNCTION  -nan(ind)     0.00   941.84     0  00:00        0.00
  JCT-540              JUNCTION  -nan(ind)     0.00  1019.18     0  00:00        0.00
  JCT-542              JUNCTION  -nan(ind)     0.00  1016.45     0  00:00        0.00
  JCT-544              JUNCTION  -nan(ind)     0.00  1015.99     0  00:00        0.00
  JCT-546              JUNCTION  -nan(ind)     0.00  1016.96     0  00:00        0.00
  JCT-548              JUNCTION  -nan(ind)     0.00  1016.46     0  00:00        0.00
  JCT-550              JUNCTION  -nan(ind)     0.00  1015.99     0  00:00        0.00
  JCT-552              JUNCTION  -nan(ind)     0.00   991.07     0  00:00        0.00
  JCT-554              JUNCTION  -nan(ind)     0.00   989.79     0  00:00        0.00
  JCT-556              JUNCTION  -nan(ind)     0.00   988.14     0  00:00        0.00
  JCT-558              JUNCTION  -nan(ind)     0.00   992.80     0  00:00        0.00
  JCT-56               JUNCTION  -nan(ind)     0.00   949.35     0  00:00        0.00
  JCT-560              JUNCTION  -nan(ind)     0.00   988.80     0  00:00        0.00
  JCT-562              JUNCTION  -nan(ind)     0.00   989.98     0  00:00        0.00
  JCT-564              JUNCTION  -nan(ind)     0.00   989.27     0  00:00        0.00
  JCT-566              JUNCTION  -nan(ind)     0.00   990.46     0  00:00        0.00
  JCT-568              JUNCTION  -nan(ind)     0.00   965.21     0  00:00        0.00
  JCT-570              JUNCTION  -nan(ind)     0.00   965.62     0  00:00        0.00
  JCT-572              JUNCTION  -nan(ind)     0.00   973.40     0  00:00        0.00
  JCT-574              JUNCTION  -nan(ind)     0.00   990.30     0  00:00        0.00
  JCT-576              JUNCTION  -nan(ind)     0.00   959.72     0  00:00        0.00
  JCT-578              JUNCTION  -nan(ind)     0.00   968.48     0  00:00        0.00
  JCT-58               JUNCTION  -nan(ind)     0.00   947.79     0  00:00        0.00
  JCT-580              JUNCTION  -nan(ind)     0.00   982.80     0  00:00        0.00
  JCT-582              JUNCTION  -nan(ind)     0.00   959.84     0  00:00        0.00
  JCT-584              JUNCTION  -nan(ind)     0.00   960.42     0  00:00        0.00
  JCT-586              JUNCTION  -nan(ind)     0.00   961.16     0  00:00        0.00
  JCT-588              JUNCTION  -nan(ind)     0.00   962.95     0  00:00        0.00
  JCT-590              JUNCTION  -nan(ind)     0.00   963.80     0  00:00        0.00
  JCT-592              JUNCTION  -nan(ind)     0.00   958.30     0  00:00        0.00
  JCT-594              JUNCTION  -nan(ind)     0.00   958.02     0  00:00        0.00
  JCT-596              JUNCTION  -nan(ind)     0.00   957.58     0  00:00        0.00
  JCT-598              JUNCTION  -nan(ind)     0.00   954.38     0  00:00        0.00
  JCT-60               JUNCTION  -nan(ind)     0.00   945.82     0  00:00        0.00
  JCT-600              JUNCTION  -nan(ind)     0.00   971.10     0  00:00        0.00
  JCT-602              JUNCTION  -nan(ind)     0.00   970.83     0  00:00        0.00
  JCT-604              JUNCTION  -nan(ind)     0.00   970.18     0  00:00        0.00
  JCT-606              JUNCTION  -nan(ind)     0.00   969.90     0  00:00        0.00
  JCT-608              JUNCTION  -nan(ind)     0.00   969.65     0  00:00        0.00
  JCT-610              JUNCTION  -nan(ind)     0.00   976.57     0  00:00        0.00
  JCT-612              JUNCTION  -nan(ind)     0.00   975.06     0  00:00        0.00
  JCT-614              JUNCTION  -nan(ind)     0.00   974.42     0  00:00        0.00
  JCT-616              JUNCTION  -nan(ind)     0.00   985.82     0  00:00        0.00
  JCT-618              JUNCTION  -nan(ind)     0.00   998.49     0  00:00        0.00
  JCT-62               JUNCTION  -nan(ind)     0.00   941.50     0  00:00        0.00
  JCT-620              JUNCTION  -nan(ind)     0.00  1005.68     0  00:00        0.00
  JCT-622              JUNCTION  -nan(ind)     0.00  1004.98     0  00:00        0.00
  JCT-624              JUNCTION  -nan(ind)     0.00  1004.07     0  00:00        0.00
  JCT-626              JUNCTION  -nan(ind)     0.00  1004.08     0  00:00        0.00
  JCT-628              JUNCTION  -nan(ind)     0.00  1003.12     0  00:00        0.00
  JCT-630              JUNCTION  -nan(ind)     0.00  1002.61     0  00:00        0.00
  JCT-632              JUNCTION  -nan(ind)     0.00  1005.01     0  00:00        0.00
  JCT-634              JUNCTION  -nan(ind)     0.00  1004.11     0  00:00        0.00
  JCT-636              JUNCTION  -nan(ind)     0.00  1003.42     0  00:00        0.00
  JCT-638              JUNCTION  -nan(ind)     0.00  1004.67     0  00:00        0.00
  JCT-64               JUNCTION  -nan(ind)     0.00   941.31     0  00:00        0.00
  JCT-640              JUNCTION  -nan(ind)     0.00   995.58     0  00:00        0.00
  JCT-642              JUNCTION  -nan(ind)     0.00   981.94     0  00:00        0.00
  JCT-644              JUNCTION  -nan(ind)     0.00   981.83     0  00:00        0.00
  JCT-646              JUNCTION  -nan(ind)     0.00   978.70     0  00:00        0.00
  JCT-648              JUNCTION  -nan(ind)     0.00   980.36     0  00:00        0.00
  JCT-650              JUNCTION  -nan(ind)     0.00   980.96     0  00:00        0.00
  JCT-652              JUNCTION  -nan(ind)     0.00   981.50     0  00:00        0.00
  JCT-654              JUNCTION  -nan(ind)     0.00   981.77     0  00:00        0.00
  JCT-656              JUNCTION  -nan(ind)     0.00   981.51     0  00:00        0.00
  JCT-658              JUNCTION  -nan(ind)     0.00   981.48     0  00:00        0.00
  JCT-66               JUNCTION  -nan(ind)     0.00   939.64     0  00:00        0.00
  JCT-660              JUNCTION  -nan(ind)     0.00   981.74     0  00:00        0.00
  JCT-662              JUNCTION  -nan(ind)     0.00   985.07     0  00:00        0.00
  JCT-664              JUNCTION  -nan(ind)     0.00   986.46     0  00:00        0.00
  JCT-666              JUNCTION  -nan(ind)     0.00   986.61     0  00:00        0.00
  JCT-668              JUNCTION  -nan(ind)     0.00   987.05     0  00:00        0.00
  JCT-670              JUNCTION  -nan(ind)     0.00   987.82     0  00:00        0.00
  JCT-672              JUNCTION  -nan(ind)     0.00   988.21     0  00:00        0.00
  JCT-674              JUNCTION  -nan(ind)     0.00   988.88     0  00:00        0.00
  JCT-676              JUNCTION  -nan(ind)     0.00   990.43     0  00:00        0.00
  JCT-678              JUNCTION  -nan(ind)     0.00   990.15     0  00:00        0.00
  JCT-68               JUNCTION  -nan(ind)     0.00   938.45     0  00:00        0.00
  JCT-680              JUNCTION  -nan(ind)     0.00   983.84     0  00:00        0.00
  JCT-682              JUNCTION  -nan(ind)     0.00   985.01     0  00:00        0.00
  JCT-684              JUNCTION  -nan(ind)     0.00   986.67     0  00:00        0.00
  JCT-686              JUNCTION  -nan(ind)     0.00   987.00     0  00:00        0.00
  JCT-688              JUNCTION  -nan(ind)     0.00   987.68     0  00:00        0.00
  JCT-690              JUNCTION  -nan(ind)     0.00   989.28     0  00:00        0.00
  JCT-692              JUNCTION  -nan(ind)     0.00   991.02     0  00:00        0.00
  JCT-694              JUNCTION  -nan(ind)     0.00   989.99     0  00:00        0.00
  JCT-696              JUNCTION  -nan(ind)     0.00   988.14     0  00:00        0.00
  JCT-698              JUNCTION  -nan(ind)     0.00   989.62     0  00:00        0.00
  JCT-70               JUNCTION  -nan(ind)     0.00   938.00     0  00:00        0.00
  JCT-700              JUNCTION  -nan(ind)     0.00   987.51     0  00:00        0.00
  JCT-702              JUNCTION  -nan(ind)     0.00   986.79     0  00:00        0.00
  JCT-704              JUNCTION  -nan(ind)     0.00   997.14     0  00:00        0.00
  JCT-706              JUNCTION  -nan(ind)     0.00   997.58     0  00:00        0.00
  JCT-708              JUNCTION  -nan(ind)     0.00   998.45     0  00:00        0.00
  JCT-710              JUNCTION  -nan(ind)     0.00   985.27     0  00:00        0.00
  JCT-712              JUNCTION  -nan(ind)     0.00   984.95     0  00:00        0.00
  JCT-714              JUNCTION  -nan(ind)     0.00   984.46     0  00:00        0.00
  JCT-716              JUNCTION  -nan(ind)     0.00   995.12     0  00:00        0.00
  JCT-718              JUNCTION  -nan(ind)     0.00   995.69     0  00:00        0.00
  JCT-72               JUNCTION  -nan(ind)     0.00   931.00     0  00:00        0.00
  JCT-720              JUNCTION  -nan(ind)     0.00   997.06     0  00:00        0.00
  JCT-722              JUNCTION  -nan(ind)     0.00   996.88     0  00:00        0.00
  JCT-724              JUNCTION  -nan(ind)     0.00   988.74     0  00:00        0.00
  JCT-726              JUNCTION  -nan(ind)     0.00   987.39     0  00:00        0.00
  JCT-728              JUNCTION  -nan(ind)     0.00   985.43     0  00:00        0.00
  JCT-730              JUNCTION  -nan(ind)     0.00   991.51     0  00:00        0.00
  JCT-732              JUNCTION  -nan(ind)     0.00   988.40     0  00:00        0.00
  JCT-734              JUNCTION  -nan(ind)     0.00   987.78     0  00:00        0.00
  JCT-736              JUNCTION  -nan(ind)     0.00   983.41     0  00:00        0.00
  JCT-738              JUNCTION  -nan(ind)     0.00   989.38     0  00:00        0.00
  JCT-74               JUNCTION  -nan(ind)     0.00   940.79     0  00:00        0.00
  JCT-740              JUNCTION  -nan(ind)     0.00   979.71     0  00:00        0.00
  JCT-742              JUNCTION  -nan(ind)     0.00   979.45     0  00:00        0.00
  JCT-744              JUNCTION  -nan(ind)     0.00   979.14     0  00:00        0.00
  JCT-746              JUNCTION  -nan(ind)     0.00   977.57     0  00:00        0.00
  JCT-748              JUNCTION  -nan(ind)     0.00   976.50     0  00:00        0.00
  JCT-750              JUNCTION  -nan(ind)     0.00   974.03     0  00:00        0.00
  JCT-752              JUNCTION  -nan(ind)     0.00   972.35     0  00:00        0.00
  JCT-754              JUNCTION  -nan(ind)     0.00   971.77     0  00:00        0.00
  JCT-756              JUNCTION  -nan(ind)     0.00   970.69     0  00:00        0.00
  JCT-758              JUNCTION  -nan(ind)     0.00   987.78     0  00:00        0.00
  JCT-76               JUNCTION  -nan(ind)     0.00   941.08     0  00:00        0.00
  JCT-760              JUNCTION  -nan(ind)     0.00   986.12     0  00:00        0.00
  JCT-762              JUNCTION  -nan(ind)     0.00   984.83     0  00:00        0.00
  JCT-764              JUNCTION  -nan(ind)     0.00   991.66     0  00:00        0.00
  JCT-766              JUNCTION  -nan(ind)     0.00   981.14     0  00:00        0.00
  JCT-768              JUNCTION  -nan(ind)     0.00   988.23     0  00:00        0.00
  JCT-770              JUNCTION  -nan(ind)     0.00   992.99     0  00:00        0.00
  JCT-772              JUNCTION  -nan(ind)     0.00   996.39     0  00:00        0.00
  JCT-774              JUNCTION  -nan(ind)     0.00   998.55     0  00:00        0.00
  JCT-776              JUNCTION  -nan(ind)     0.00   999.34     0  00:00        0.00
  JCT-778              JUNCTION  -nan(ind)     0.00   990.89     0  00:00        0.00
  JCT-78               JUNCTION  -nan(ind)     0.00   925.00     0  00:00        0.00
  JCT-780              JUNCTION  -nan(ind)     0.00   986.05     0  00:00        0.00
  JCT-782              JUNCTION  -nan(ind)     0.00   984.60     0  00:00        0.00
  JCT-784              JUNCTION  -nan(ind)     0.00   982.96     0  00:00        0.00
  JCT-786              JUNCTION  -nan(ind)     0.00   979.34     0  00:00        0.00
  JCT-788              JUNCTION  -nan(ind)     0.00   977.88     0  00:00        0.00
  JCT-790              JUNCTION  -nan(ind)     0.00   974.12     0  00:00        0.00
  JCT-792              JUNCTION  -nan(ind)     0.00   978.18     0  00:00        0.00
  JCT-794              JUNCTION  -nan(ind)     0.00   993.00     0  00:00        0.00
  JCT-796              JUNCTION  -nan(ind)     0.00   994.13     0  00:00        0.00
  JCT-798              JUNCTION  -nan(ind)     0.00   994.87     0  00:00        0.00
  JCT-80               JUNCTION  -nan(ind)     0.00   946.91     0  00:00        0.00
  JCT-800              JUNCTION  -nan(ind)     0.00   995.59     0  00:00        0.00
  JCT-802              JUNCTION  -nan(ind)     0.00   996.28     0  00:00        0.00
  JCT-804              JUNCTION  -nan(ind)     0.00   983.46     0  00:00        0.00
  JCT-806              JUNCTION  -nan(ind)     0.00   983.41     0  00:00        0.00
  JCT-808              JUNCTION  -nan(ind)     0.00   983.90     0  00:00        0.00
  JCT-810              JUNCTION  -nan(ind)     0.00   985.10     0  00:00        0.00
  JCT-812              JUNCTION  -nan(ind)     0.00   985.17     0  00:00        0.00
  JCT-814              JUNCTION  -nan(ind)     0.00   985.73     0  00:00        0.00
  JCT-816              JUNCTION  -nan(ind)     0.00   986.46     0  00:00        0.00
  JCT-818              JUNCTION  -nan(ind)     0.00   987.26     0  00:00        0.00
  JCT-82               JUNCTION  -nan(ind)     0.00   950.14     0  00:00        0.00
  JCT-820              JUNCTION  -nan(ind)     0.00   984.16     0  00:00        0.00
  JCT-822              JUNCTION  -nan(ind)     0.00   999.58     0  00:00        0.00
  JCT-824              JUNCTION  -nan(ind)     0.00   999.75     0  00:00        0.00
  JCT-826              JUNCTION  -nan(ind)     0.00   985.04     0  00:00        0.00
  JCT-828              JUNCTION  -nan(ind)     0.00   986.39     0  00:00        0.00
  JCT-830              JUNCTION  -nan(ind)     0.00   982.25     0  00:00        0.00
  JCT-832              JUNCTION  -nan(ind)     0.00   988.60     0  00:00        0.00
  JCT-834              JUNCTION  -nan(ind)     0.00   989.46     0  00:00        0.00
  JCT-836              JUNCTION  -nan(ind)     0.00   989.77     0  00:00        0.00
  JCT-838              JUNCTION  -nan(ind)     0.00   990.22     0  00:00        0.00
  JCT-84               JUNCTION  -nan(ind)     0.00   951.91     0  00:00        0.00
  JCT-840              JUNCTION  -nan(ind)     0.00   991.11     0  00:00        0.00
  JCT-842              JUNCTION  -nan(ind)     0.00   997.42     0  00:00        0.00
  JCT-844              JUNCTION  -nan(ind)     0.00   997.00     0  00:00        0.00
  JCT-846              JUNCTION  -nan(ind)     0.00   996.90     0  00:00        0.00
  JCT-848              JUNCTION  -nan(ind)     0.00   971.94     0  00:00        0.00
  JCT-850              JUNCTION  -nan(ind)     0.00   988.51     0  00:00        0.00
  JCT-852              JUNCTION  -nan(ind)     0.00  1004.23     0  00:00        0.00
  JCT-854              JUNCTION  -nan(ind)     0.00  1002.18     0  00:00        0.00
  JCT-856              JUNCTION  -nan(ind)     0.00  1000.50     0  00:00        0.00
  JCT-858              JUNCTION  -nan(ind)     0.00   997.02     0  00:00        0.00
  JCT-86               JUNCTION  -nan(ind)     0.00   956.52     0  00:00        0.00
  JCT-860              JUNCTION  -nan(ind)     0.00   975.79     0  00:00        0.00
  JCT-862              JUNCTION  -nan(ind)     0.00   966.24     0  00:00        0.00
  JCT-864              JUNCTION  -nan(ind)     0.00   974.60     0  00:00        0.00
  JCT-866              JUNCTION  -nan(ind)     0.00   968.87     0  00:00        0.00
  JCT-868              JUNCTION  -nan(ind)     0.00   962.88     0  00:00        0.00
  JCT-870              JUNCTION  -nan(ind)     0.00   962.07     0  00:00        0.00
  JCT-872              JUNCTION  -nan(ind)     0.00   960.56     0  00:00        0.00
  JCT-874              JUNCTION  -nan(ind)     0.00   959.12     0  00:00        0.00
  JCT-876              JUNCTION  -nan(ind)     0.00   958.77     0  00:00        0.00
  JCT-878              JUNCTION  -nan(ind)     0.00   958.59     0  00:00        0.00
  JCT-88               JUNCTION  -nan(ind)     0.00   960.38     0  00:00        0.00
  JCT-880              JUNCTION  -nan(ind)     0.00   956.95     0  00:00        0.00
  JCT-882              JUNCTION  -nan(ind)     0.00   960.04     0  00:00        0.00
  JCT-884              JUNCTION  -nan(ind)     0.00   956.41     0  00:00        0.00
  JCT-886              JUNCTION  -nan(ind)     0.00   978.89     0  00:00        0.00
  JCT-888              JUNCTION  -nan(ind)     0.00   980.44     0  00:00        0.00
  JCT-890              JUNCTION  -nan(ind)     0.00   982.38     0  00:00        0.00
  JCT-892              JUNCTION  -nan(ind)     0.00   983.50     0  00:00        0.00
  JCT-894              JUNCTION  -nan(ind)     0.00   984.00     0  00:00        0.00
  JCT-896              JUNCTION  -nan(ind)     0.00   983.76     0  00:00        0.00
  JCT-898              JUNCTION  -nan(ind)     0.00   984.80     0  00:00        0.00
  JCT-900              JUNCTION  -nan(ind)     0.00   986.21     0  00:00        0.00
  JCT-902              JUNCTION  -nan(ind)     0.00   985.11     0  00:00        0.00
  JCT-904              JUNCTION  -nan(ind)     0.00   985.92     0  00:00        0.00
  JCT-906              JUNCTION  -nan(ind)     0.00   987.18     0  00:00        0.00
  JCT-908              JUNCTION  -nan(ind)     0.00   988.30     0  00:00        0.00
  JCT-910              JUNCTION  -nan(ind)     0.00   990.67     0  00:00        0.00
  JCT-912              JUNCTION  -nan(ind)     0.00   989.35     0  00:00        0.00
  JCT-914              JUNCTION  -nan(ind)     0.00   990.17     0  00:00        0.00
[...]
  CDT-755                 1.00   -nan(ind)  -nan(ind)  -nan(ind)  -nan(ind)  -nan(ind)  -nan(ind)  -nan(ind)  -nan(ind)  -nan(ind)
  CDT-757                 1.00   -nan(ind)  -nan(ind)  -nan(ind)  -nan(ind)  -nan(ind)  -nan(ind)  -nan(ind)  -nan(ind)  -nan(ind)
  CDT-759                 1.00   -nan(ind)  -nan(ind)  -nan(ind)  -nan(ind)  -nan(ind)  -nan(ind)  -nan(ind)  -nan(ind)  -nan(ind)
  CDT-761                 1.00   -nan(ind)  -nan(ind)  -nan(ind)  -nan(ind)  -nan(ind)  -nan(ind)  -nan(ind)  -nan(ind)  -nan(ind)
  CDT-763                 1.00   -nan(ind)  -nan(ind)  -nan(ind)  -nan(ind)  -nan(ind)  -nan(ind)  -nan(ind)  -nan(ind)  -nan(ind)
  CDT-765                 1.00   -nan(ind)  -nan(ind)  -nan(ind)  -nan(ind)  -nan(ind)  -nan(ind)  -nan(ind)  -nan(ind)  -nan(ind)
  CDT-767                 1.00   -nan(ind)  -nan(ind)  -nan(ind)  -nan(ind)  -nan(ind)  -nan(ind)  -nan(ind)  -nan(ind)  -nan(ind)
  CDT-769                 2.33   -nan(ind)  -nan(ind)  -nan(ind)  -nan(ind)  -nan(ind)  -nan(ind)  -nan(ind)  -nan(ind)  -nan(ind)
  CDT-77                  1.00   -nan(ind)  -nan(ind)  -nan(ind)  -nan(ind)  -nan(ind)  -nan(ind)  -nan(ind)  -nan(ind)  -nan(ind)
  CDT-771                 1.00   -nan(ind)  -nan(ind)  -nan(ind)  -nan(ind)  -nan(ind)  -nan(ind)  -nan(ind)  -nan(ind)  -nan(ind)
  CDT-773                 1.00   -nan(ind)  -nan(ind)  -nan(ind)  -nan(ind)  -nan(ind)  -nan(ind)  -nan(ind)  -nan(ind)  -nan(ind)
  CDT-775                 1.00   -nan(ind)  -nan(ind)  -nan(ind)  -nan(ind)  -nan(ind)  -nan(ind)  -nan(ind)  -nan(ind)  -nan(ind)
  CDT-777                 1.00   -nan(ind)  -nan(ind)  -nan(ind)  -nan(ind)  -nan(ind)  -nan(ind)  -nan(ind)  -nan(ind)  -nan(ind)
  CDT-779                 1.00   -nan(ind)  -nan(ind)  -nan(ind)  -nan(ind)  -nan(ind)  -nan(ind)  -nan(ind)  -nan(ind)  -nan(ind)
  CDT-781                 1.00   -nan(ind)  -nan(ind)  -nan(ind)  -nan(ind)  -nan(ind)  -nan(ind)  -nan(ind)  -nan(ind)  -nan(ind)
  CDT-783                 1.00   -nan(ind)  -nan(ind)  -nan(ind)  -nan(ind)  -nan(ind)  -nan(ind)  -nan(ind)  -nan(ind)  -nan(ind)
  CDT-785                 1.00   -nan(ind)  -nan(ind)  -nan(ind)  -nan(ind)  -nan(ind)  -nan(ind)  -nan(ind)  -nan(ind)  -nan(ind)
  CDT-787                 1.00   -nan(ind)  -nan(ind)  -nan(ind)  -nan(ind)  -nan(ind)  -nan(ind)  -nan(ind)  -nan(ind)  -nan(ind)
  CDT-789                 1.00   -nan(ind)  -nan(ind)  -nan(ind)  -nan(ind)  -nan(ind)  -nan(ind)  -nan(ind)  -nan(ind)  -nan(ind)
  CDT-79                  1.00   -nan(ind)  -nan(ind)  -nan(ind)  -nan(ind)  -nan(ind)  -nan(ind)  -nan(ind)  -nan(ind)  -nan(ind)
  CDT-791                 1.00   -nan(ind)  -nan(ind)  -nan(ind)  -nan(ind)  -nan(ind)  -nan(ind)  -nan(ind)  -nan(ind)  -nan(ind)
  CDT-793                 1.00   -nan(ind)  -nan(ind)  -nan(ind)  -nan(ind)  -nan(ind)  -nan(ind)  -nan(ind)  -nan(ind)  -nan(ind)
  CDT-795                 1.00   -nan(ind)  -nan(ind)  -nan(ind)  -nan(ind)  -nan(ind)  -nan(ind)  -nan(ind)  -nan(ind)  -nan(ind)
  CDT-797                 1.00   -nan(ind)  -nan(ind)  -nan(ind)  -nan(ind)  -nan(ind)  -nan(ind)  -nan(ind)  -nan(ind)  -nan(ind)
  CDT-799                 1.00   -nan(ind)  -nan(ind)  -nan(ind)  -nan(ind)  -nan(ind)  -nan(ind)  -nan(ind)  -nan(ind)  -nan(ind)
  CDT-801                 1.00   -nan(ind)  -nan(ind)  -nan(ind)  -nan(ind)  -nan(ind)  -nan(ind)  -nan(ind)  -nan(ind)  -nan(ind)
  CDT-803                 1.00   -nan(ind)  -nan(ind)  -nan(ind)  -nan(ind)  -nan(ind)  -nan(ind)  -nan(ind)  -nan(ind)  -nan(ind)
  CDT-805                 1.00   -nan(ind)  -nan(ind)  -nan(ind)  -nan(ind)  -nan(ind)  -nan(ind)  -nan(ind)  -nan(ind)  -nan(ind)
  CDT-807                 1.00   -nan(ind)  -nan(ind)  -nan(ind)  -nan(ind)  -nan(ind)  -nan(ind)  -nan(ind)  -nan(ind)  -nan(ind)
  CDT-809                 1.00   -nan(ind)  -nan(ind)  -nan(ind)  -nan(ind)  -nan(ind)  -nan(ind)  -nan(ind)  -nan(ind)  -nan(ind)
  CDT-81                  1.00   -nan(ind)  -nan(ind)  -nan(ind)  -nan(ind)  -nan(ind)  -nan(ind)  -nan(ind)  -nan(ind)  -nan(ind)
  CDT-811                 1.00   -nan(ind)  -nan(ind)  -nan(ind)  -nan(ind)  -nan(ind)  -nan(ind)  -nan(ind)  -nan(ind)  -nan(ind)
  CDT-813                 1.00   -nan(ind)  -nan(ind)  -nan(ind)  -nan(ind)  -nan(ind)  -nan(ind)  -nan(ind)  -nan(ind)  -nan(ind)
  CDT-815                 1.00   -nan(ind)  -nan(ind)  -nan(ind)  -nan(ind)  -nan(ind)  -nan(ind)  -nan(ind)  -nan(ind)  -nan(ind)
  CDT-817                 1.00   -nan(ind)  -nan(ind)  -nan(ind)  -nan(ind)  -nan(ind)  -nan(ind)  -nan(ind)  -nan(ind)  -nan(ind)
  CDT-819                 1.00   -nan(ind)  -nan(ind)  -nan(ind)  -nan(ind)  -nan(ind)  -nan(ind)  -nan(ind)  -nan(ind)  -nan(ind)
  CDT-821                 1.00   -nan(ind)  -nan(ind)  -nan(ind)  -nan(ind)  -nan(ind)  -nan(ind)  -nan(ind)  -nan(ind)  -nan(ind)
  CDT-823                 1.00   -nan(ind)  -nan(ind)  -nan(ind)  -nan(ind)  -nan(ind)  -nan(ind)  -nan(ind)  -nan(ind)  -nan(ind)
  CDT-825                 1.00   -nan(ind)  -nan(ind)  -nan(ind)  -nan(ind)  -nan(ind)  -nan(ind)  -nan(ind)  -nan(ind)  -nan(ind)
  CDT-827                 1.00   -nan(ind)  -nan(ind)  -nan(ind)  -nan(ind)  -nan(ind)  -nan(ind)  -nan(ind)  -nan(ind)  -nan(ind)
  CDT-829                 1.00   -nan(ind)  -nan(ind)  -nan(ind)  -nan(ind)  -nan(ind)  -nan(ind)  -nan(ind)  -nan(ind)  -nan(ind)
  CDT-83                  1.00   -nan(ind)  -nan(ind)  -nan(ind)  -nan(ind)  -nan(ind)  -nan(ind)  -nan(ind)  -nan(ind)  -nan(ind)
  CDT-831                 1.00   -nan(ind)  -nan(ind)  -nan(ind)  -nan(ind)  -nan(ind)  -nan(ind)  -nan(ind)  -nan(ind)  -nan(ind)
  CDT-833                 1.00   -nan(ind)  -nan(ind)  -nan(ind)  -nan(ind)  -nan(ind)  -nan(ind)  -nan(ind)  -nan(ind)  -nan(ind)
  CDT-835                 1.00   -nan(ind)  -nan(ind)  -nan(ind)  -nan(ind)  -nan(ind)  -nan(ind)  -nan(ind)  -nan(ind)  -nan(ind)
  CDT-837                 1.00   -nan(ind)  -nan(ind)  -nan(ind)  -nan(ind)  -nan(ind)  -nan(ind)  -nan(ind)  -nan(ind)  -nan(ind)
  CDT-839                 1.00   -nan(ind)  -nan(ind)  -nan(ind)  -nan(ind)  -nan(ind)  -nan(ind)  -nan(ind)  -nan(ind)  -nan(ind)
  CDT-841                 1.00   -nan(ind)  -nan(ind)  -nan(ind)  -nan(ind)  -nan(ind)  -nan(ind)  -nan(ind)  -nan(ind)  -nan(ind)
  CDT-843                 1.00   -nan(ind)  -nan(ind)  -nan(ind)  -nan(ind)  -nan(ind)  -nan(ind)  -nan(ind)  -nan(ind)  -nan(ind)
  CDT-845                 1.00   -nan(ind)  -nan(ind)  -nan(ind)  -nan(ind)  -nan(ind)  -nan(ind)  -nan(ind)  -nan(ind)  -nan(ind)
  CDT-847                 1.00   -nan(ind)  -nan(ind)  -nan(ind)  -nan(ind)  -nan(ind)  -nan(ind)  -nan(ind)  -nan(ind)  -nan(ind)
  CDT-849                 1.00   -nan(ind)  -nan(ind)  -nan(ind)  -nan(ind)  -nan(ind)  -nan(ind)  -nan(ind)  -nan(ind)  -nan(ind)
  CDT-85                  1.00   -nan(ind)  -nan(ind)  -nan(ind)  -nan(ind)  -nan(ind)  -nan(ind)  -nan(ind)  -nan(ind)  -nan(ind)
  CDT-851                 1.00   -nan(ind)  -nan(ind)  -nan(ind)  -nan(ind)  -nan(ind)  -nan(ind)  -nan(ind)  -nan(ind)  -nan(ind)
  CDT-853                 1.00   -nan(ind)  -nan(ind)  -nan(ind)  -nan(ind)  -nan(ind)  -nan(ind)  -nan(ind)  -nan(ind)  -nan(ind)
  CDT-855                 1.00   -nan(ind)  -nan(ind)  -nan(ind)  -nan(ind)  -nan(ind)  -nan(ind)  -nan(ind)  -nan(ind)  -nan(ind)
  CDT-857                 1.00   -nan(ind)  -nan(ind)  -nan(ind)  -nan(ind)  -nan(ind)  -nan(ind)  -nan(ind)  -nan(ind)  -nan(ind)
  CDT-859                 1.00   -nan(ind)  -nan(ind)  -nan(ind)  -nan(ind)  -nan(ind)  -nan(ind)  -nan(ind)  -nan(ind)  -nan(ind)
  CDT-861                 1.00   -nan(ind)  -nan(ind)  -nan(ind)  -nan(ind)  -nan(ind)  -nan(ind)  -nan(ind)  -nan(ind)  -nan(ind)
  CDT-863                 1.00   -nan(ind)  -nan(ind)  -nan(ind)  -nan(ind)  -nan(ind)  -nan(ind)  -nan(ind)  -nan(ind)  -nan(ind)
  CDT-867                 1.00   -nan(ind)  -nan(ind)  -nan(ind)  -nan(ind)  -nan(ind)  -nan(ind)  -nan(ind)  -nan(ind)  -nan(ind)
  CDT-869                 1.00   -nan(ind)  -nan(ind)  -nan(ind)  -nan(ind)  -nan(ind)  -nan(ind)  -nan(ind)  -nan(ind)  -nan(ind)
  CDT-87                  1.00   -nan(ind)  -nan(ind)  -nan(ind)  -nan(ind)  -nan(ind)  -nan(ind)  -nan(ind)  -nan(ind)  -nan(ind)
  CDT-871                 1.00   -nan(ind)  -nan(ind)  -nan(ind)  -nan(ind)  -nan(ind)  -nan(ind)  -nan(ind)  -nan(ind)  -nan(ind)
  CDT-873                 1.00   -nan(ind)  -nan(ind)  -nan(ind)  -nan(ind)  -nan(ind)  -nan(ind)  -nan(ind)  -nan(ind)  -nan(ind)
  CDT-875                 1.00   -nan(ind)  -nan(ind)  -nan(ind)  -nan(ind)  -nan(ind)  -nan(ind)  -nan(ind)  -nan(ind)  -nan(ind)
  CDT-877                 1.00   -nan(ind)  -nan(ind)  -nan(ind)  -nan(ind)  -nan(ind)  -nan(ind)  -nan(ind)  -nan(ind)  -nan(ind)
  CDT-879                 1.00   -nan(ind)  -nan(ind)  -nan(ind)  -nan(ind)  -nan(ind)  -nan(ind)  -nan(ind)  -nan(ind)  -nan(ind)
  CDT-881                 1.00   -nan(ind)  -nan(ind)  -nan(ind)  -nan(ind)  -nan(ind)  -nan(ind)  -nan(ind)  -nan(ind)  -nan(ind)
  CDT-883                 1.00   -nan(ind)  -nan(ind)  -nan(ind)  -nan(ind)  -nan(ind)  -nan(ind)  -nan(ind)  -nan(ind)  -nan(ind)
  CDT-885                 1.00   -nan(ind)  -nan(ind)  -nan(ind)  -nan(ind)  -nan(ind)  -nan(ind)  -nan(ind)  -nan(ind)  -nan(ind)
  CDT-887                 1.00   -nan(ind)  -nan(ind)  -nan(ind)  -nan(ind)  -nan(ind)  -nan(ind)  -nan(ind)  -nan(ind)  -nan(ind)
  CDT-889                 1.00   -nan(ind)  -nan(ind)  -nan(ind)  -nan(ind)  -nan(ind)  -nan(ind)  -nan(ind)  -nan(ind)  -nan(ind)
  CDT-89                  1.00   -nan(ind)  -nan(ind)  -nan(ind)  -nan(ind)  -nan(ind)  -nan(ind)  -nan(ind)  -nan(ind)  -nan(ind)
  CDT-891                 1.00   -nan(ind)  -nan(ind)  -nan(ind)  -nan(ind)  -nan(ind)  -nan(ind)  -nan(ind)  -nan(ind)  -nan(ind)
  CDT-893                 1.00   -nan(ind)  -nan(ind)  -nan(ind)  -nan(ind)  -nan(ind)  -nan(ind)  -nan(ind)  -nan(ind)  -nan(ind)
  CDT-895                 1.00   -nan(ind)  -nan(ind)  -nan(ind)  -nan(ind)  -nan(ind)  -nan(ind)  -nan(ind)  -nan(ind)  -nan(ind)
  CDT-897                 1.00   -nan(ind)  -nan(ind)  -nan(ind)  -nan(ind)  -nan(ind)  -nan(ind)  -nan(ind)  -nan(ind)  -nan(ind)
  CDT-899                 1.00   -nan(ind)  -nan(ind)  -nan(ind)  -nan(ind)  -nan(ind)  -nan(ind)  -nan(ind)  -nan(ind)  -nan(ind)
  CDT-901                 1.00   -nan(ind)  -nan(ind)  -nan(ind)  -nan(ind)  -nan(ind)  -nan(ind)  -nan(ind)  -nan(ind)  -nan(ind)
  CDT-903                 1.00   -nan(ind)  -nan(ind)  -nan(ind)  -nan(ind)  -nan(ind)  -nan(ind)  -nan(ind)  -nan(ind)  -nan(ind)
  CDT-905                 1.00   -nan(ind)  -nan(ind)  -nan(ind)  -nan(ind)  -nan(ind)  -nan(ind)  -nan(ind)  -nan(ind)  -nan(ind)
  CDT-907                 1.00   -nan(ind)  -nan(ind)  -nan(ind)  -nan(ind)  -nan(ind)  -nan(ind)  -nan(ind)  -nan(ind)  -nan(ind)
  CDT-909                 9.02   -nan(ind)  -nan(ind)  -nan(ind)  -nan(ind)  -nan(ind)  -nan(ind)  -nan(ind)  -nan(ind)  -nan(ind)
  CDT-91                  1.00   -nan(ind)  -nan(ind)  -nan(ind)  -nan(ind)  -nan(ind)  -nan(ind)  -nan(ind)  -nan(ind)  -nan(ind)
  CDT-911                 1.00   -nan(ind)  -nan(ind)  -nan(ind)  -nan(ind)  -nan(ind)  -nan(ind)  -nan(ind)  -nan(ind)  -nan(ind)
  CDT-913                 1.00   -nan(ind)  -nan(ind)  -nan(ind)  -nan(ind)  -nan(ind)  -nan(ind)  -nan(ind)  -nan(ind)  -nan(ind)
  CDT-915                 1.00   -nan(ind)  -nan(ind)  -nan(ind)  -nan(ind)  -nan(ind)  -nan(ind)  -nan(ind)  -nan(ind)  -nan(ind)
  CDT-917                 1.00   -nan(ind)  -nan(ind)  -nan(ind)  -nan(ind)  -nan(ind)  -nan(ind)  -nan(ind)  -nan(ind)  -nan(ind)
  CDT-919                 1.00   -nan(ind)  -nan(ind)  -nan(ind)  -nan(ind)  -nan(ind)  -nan(ind)  -nan(ind)  -nan(ind)  -nan(ind)
  CDT-921                 1.00   -nan(ind)  -nan(ind)  -nan(ind)  -nan(ind)  -nan(ind)  -nan(ind)  -nan(ind)  -nan(ind)  -nan(ind)
  CDT-923                 1.00   -nan(ind)  -nan(ind)  -nan(ind)  -nan(ind)  -nan(ind)  -nan(ind)  -nan(ind)  -nan(ind)  -nan(ind)
  CDT-925                 1.00   -nan(ind)  -nan(ind)  -nan(ind)  -nan(ind)  -nan(ind)  -nan(ind)  -nan(ind)  -nan(ind)  -nan(ind)
  CDT-927                 1.00   -nan(ind)  -nan(ind)  -nan(ind)  -nan(ind)  -nan(ind)  -nan(ind)  -nan(ind)  -nan(ind)  -nan(ind)
  CDT-929                 1.00   -nan(ind)  -nan(ind)  -nan(ind)  -nan(ind)  -nan(ind)  -nan(ind)  -nan(ind)  -nan(ind)  -nan(ind)
  CDT-93                  1.00   -nan(ind)  -nan(ind)  -nan(ind)  -nan(ind)  -nan(ind)  -nan(ind)  -nan(ind)  -nan(ind)  -nan(ind)
  CDT-931                 1.00   -nan(ind)  -nan(ind)  -nan(ind)  -nan(ind)  -nan(ind)  -nan(ind)  -nan(ind)  -nan(ind)  -nan(ind)
  CDT-933                 1.00   -nan(ind)  -nan(ind)  -nan(ind)  -nan(ind)  -nan(ind)  -nan(ind)  -nan(ind)  -nan(ind)  -nan(ind)
  CDT-935                 1.00   -nan(ind)  -nan(ind)  -nan(ind)  -nan(ind)  -nan(ind)  -nan(ind)  -nan(ind)  -nan(ind)  -nan(ind)
  CDT-937                 1.47   -nan(ind)  -nan(ind)  -nan(ind)  -nan(ind)  -nan(ind)  -nan(ind)  -nan(ind)  -nan(ind)  -nan(ind)
  CDT-939                 1.00   -nan(ind)  -nan(ind)  -nan(ind)  -nan(ind)  -nan(ind)  -nan(ind)  -nan(ind)  -nan(ind)  -nan(ind)
  CDT-941                 1.00   -nan(ind)  -nan(ind)  -nan(ind)  -nan(ind)  -nan(ind)  -nan(ind)  -nan(ind)  -nan(ind)  -nan(ind)
  CDT-943                 1.00   -nan(ind)  -nan(ind)  -nan(ind)  -nan(ind)  -nan(ind)  -nan(ind)  -nan(ind)  -nan(ind)  -nan(ind)
  CDT-945                 1.00   -nan(ind)  -nan(ind)  -nan(ind)  -nan(ind)  -nan(ind)  -nan(ind)  -nan(ind)  -nan(ind)  -nan(ind)
  CDT-947                 1.00   -nan(ind)  -nan(ind)  -nan(ind)  -nan(ind)  -nan(ind)  -nan(ind)  -nan(ind)  -nan(ind)  -nan(ind)
  CDT-949                 1.00   -nan(ind)  -nan(ind)  -nan(ind)  -nan(ind)  -nan(ind)  -nan(ind)  -nan(ind)  -nan(ind)  -nan(ind)
  CDT-95                  1.00   -nan(ind)  -nan(ind)  -nan(ind)  -nan(ind)  -nan(ind)  -nan(ind)  -nan(ind)  -nan(ind)  -nan(ind)
  CDT-951                 1.00   -nan(ind)  -nan(ind)  -nan(ind)  -nan(ind)  -nan(ind)  -nan(ind)  -nan(ind)  -nan(ind)  -nan(ind)
  CDT-953                 1.00   -nan(ind)  -nan(ind)  -nan(ind)  -nan(ind)  -nan(ind)  -nan(ind)  -nan(ind)  -nan(ind)  -nan(ind)
  CDT-955                 1.00   -nan(ind)  -nan(ind)  -nan(ind)  -nan(ind)  -nan(ind)  -nan(ind)  -nan(ind)  -nan(ind)  -nan(ind)
  CDT-957                 1.00   -nan(ind)  -nan(ind)  -nan(ind)  -nan(ind)  -nan(ind)  -nan(ind)  -nan(ind)  -nan(ind)  -nan(ind)
  CDT-959                 1.00   -nan(ind)  -nan(ind)  -nan(ind)  -nan(ind)  -nan(ind)  -nan(ind)  -nan(ind)  -nan(ind)  -nan(ind)
  CDT-961                 1.00   -nan(ind)  -nan(ind)  -nan(ind)  -nan(ind)  -nan(ind)  -nan(ind)  -nan(ind)  -nan(ind)  -nan(ind)
  CDT-963                 1.00   -nan(ind)  -nan(ind)  -nan(ind)  -nan(ind)  -nan(ind)  -nan(ind)  -nan(ind)  -nan(ind)  -nan(ind)
  CDT-965                 1.00   -nan(ind)  -nan(ind)  -nan(ind)  -nan(ind)  -nan(ind)  -nan(ind)  -nan(ind)  -nan(ind)  -nan(ind)
  CDT-967                 1.00   -nan(ind)  -nan(ind)  -nan(ind)  -nan(ind)  -nan(ind)  -nan(ind)  -nan(ind)  -nan(ind)  -nan(ind)
  CDT-969                 1.00   -nan(ind)  -nan(ind)  -nan(ind)  -nan(ind)  -nan(ind)  -nan(ind)  -nan(ind)  -nan(ind)  -nan(ind)
  CDT-97                  1.00   -nan(ind)  -nan(ind)  -nan(ind)  -nan(ind)  -nan(ind)  -nan(ind)  -nan(ind)  -nan(ind)  -nan(ind)
  CDT-971                 1.00   -nan(ind)  -nan(ind)  -nan(ind)  -nan(ind)  -nan(ind)  -nan(ind)  -nan(ind)  -nan(ind)  -nan(ind)
  CDT-973                 1.00   -nan(ind)  -nan(ind)  -nan(ind)  -nan(ind)  -nan(ind)  -nan(ind)  -nan(ind)  -nan(ind)  -nan(ind)
  CDT-975                 1.00   -nan(ind)  -nan(ind)  -nan(ind)  -nan(ind)  -nan(ind)  -nan(ind)  -nan(ind)  -nan(ind)  -nan(ind)
  CDT-977                 1.00   -nan(ind)  -nan(ind)  -nan(ind)  -nan(ind)  -nan(ind)  -nan(ind)  -nan(ind)  -nan(ind)  -nan(ind)
  CDT-979                 1.00   -nan(ind)  -nan(ind)  -nan(ind)  -nan(ind)  -nan(ind)  -nan(ind)  -nan(ind)  -nan(ind)  -nan(ind)
  CDT-981                 1.00   -nan(ind)  -nan(ind)  -nan(ind)  -nan(ind)  -nan(ind)  -nan(ind)  -nan(ind)  -nan(ind)  -nan(ind)
  CDT-983                 1.00   -nan(ind)  -nan(ind)  -nan(ind)  -nan(ind)  -nan(ind)  -nan(ind)  -nan(ind)  -nan(ind)  -nan(ind)
  CDT-985                 1.00   -nan(ind)  -nan(ind)  -nan(ind)  -nan(ind)  -nan(ind)  -nan(ind)  -nan(ind)  -nan(ind)  -nan(ind)
  CDT-987                 1.00   -nan(ind)  -nan(ind)  -nan(ind)  -nan(ind)  -nan(ind)  -nan(ind)  -nan(ind)  -nan(ind)  -nan(ind)
  CDT-989                 1.00   -nan(ind)  -nan(ind)  -nan(ind)  -nan(ind)  -nan(ind)  -nan(ind)  -nan(ind)  -nan(ind)  -nan(ind)
  CDT-99                  1.00   -nan(ind)  -nan(ind)  -nan(ind)  -nan(ind)  -nan(ind)  -nan(ind)  -nan(ind)  -nan(ind)  -nan(ind)
  CDT-991                 1.00   -nan(ind)  -nan(ind)  -nan(ind)  -nan(ind)  -nan(ind)  -nan(ind)  -nan(ind)  -nan(ind)  -nan(ind)
  CDT-993                 1.00   -nan(ind)  -nan(ind)  -nan(ind)  -nan(ind)  -nan(ind)  -nan(ind)  -nan(ind)  -nan(ind)  -nan(ind)
  CDT-995                 1.00   -nan(ind)  -nan(ind)  -nan(ind)  -nan(ind)  -nan(ind)  -nan(ind)  -nan(ind)  -nan(ind)  -nan(ind)
  CDT-997                 1.00   -nan(ind)  -nan(ind)  -nan(ind)  -nan(ind)  -nan(ind)  -nan(ind)  -nan(ind)  -nan(ind)  -nan(ind)
  CDT-999                 1.00   -nan(ind)  -nan(ind)  -nan(ind)  -nan(ind)  -nan(ind)  -nan(ind)  -nan(ind)  -nan(ind)  -nan(ind)
  SUMPPUMP_TO_LS9         2.27   -nan(ind)  -nan(ind)  -nan(ind)  -nan(ind)  -nan(ind)  -nan(ind)  -nan(ind)  -nan(ind)  -nan(ind)
  
  
  *************************
  Conduit Surcharge Summary
  *************************
  
  No conduits were surcharged.
  
  
  ***************
  Pumping Summary
  ***************
  
  ---------------------------------------------------------------------------------------------------------
                                                  Min       Avg       Max     Total     Power    % Time Off
                        Percent   Number of      Flow      Flow      Flow    Volume     Usage    Pump Curve
  Pump                 Utilized   Start-Ups       MGD       MGD       MGD  10^6 gal     Kw-hr    Low   High
  ---------------------------------------------------------------------------------------------------------
  PUMP-11              -nan(ind)           0      0.00      0.00      0.00     0.000      0.00    0.0    0.0
  PUMP-17              -nan(ind)           0      0.00      0.00      0.00     0.000      0.00    0.0    0.0
  PUMP-21              -nan(ind)           0      0.00      0.00      0.00     0.000      0.00    0.0    0.0
  PUMP-23              -nan(ind)           0      0.00      0.00      0.00     0.000      0.00    0.0    0.0
  PUMP-31              -nan(ind)           0      0.00      0.00      0.00     0.000      0.00    0.0    0.0
  PUMP-43              -nan(ind)           0      0.00      0.00      0.00     0.000      0.00    0.0    0.0
  PUMP-45              -nan(ind)           0      0.00      0.00      0.00     0.000      0.00    0.0    0.0
  PUMP-61              -nan(ind)           0      0.00      0.00      0.00     0.000      0.00    0.0    0.0
  PUMP-65              -nan(ind)           0      0.00      0.00      0.00     0.000      0.00    0.0    0.0
  PUMP-71              -nan(ind)           0      0.00      0.00      0.00     0.000      0.00    0.0    0.0
  PUMP-77              -nan(ind)           0      0.00      0.00      0.00     0.000      0.00    0.0    0.0
  PUMP-81              -nan(ind)           0      0.00      0.00      0.00     0.000      0.00    0.0    0.0
  PUMP-87              -nan(ind)           0      0.00      0.00      0.00     0.000      0.00    0.0    0.0
  

  Analysis begun on:  Sat Nov 30 08:10:45 2019
  Analysis ended on:  Sat Nov 30 08:10:45 2019
  Total elapsed time: < 1 sec