
  EPA STORM WATER MANAGEMENT MODEL - VERSION 5.1 (Build 5.1.013)
  --------------------------------------------------------------

  WARNING 04: minimum elevation drop used for Conduit S4050216-4050205XX
  WARNING 04: minimum elevation drop used for Conduit S4110215-4110217XX
  WARNING 04: minimum elevation drop used for Conduit S4260209-4260208XX
  WARNING 04: minimum elevation drop used for Conduit S4970209-4970208XX
  WARNING 04: minimum elevation drop used for Conduit S5120210-5120207XX
  WARNING 04: minimum elevation drop used for Conduit S6130208-6131001XX
  WARNING 04: minimum elevation drop used for Conduit S6290205-6290204XX
  WARNING 04: minimum elevation drop used for Conduit S6520211-6520212XX
  
  *********************************************************
  NOTE: The summary statistics displayed in this report are
  based on results found at every computational time step,  
  not just on results from each reporting time step.
  *********************************************************
  
  ****************
  Analysis Options
  ****************
  Flow Units ............... MGD
  Process Models:
    Rainfall/Runoff ........ NO
    RDII ................... NO
    Snowmelt ............... NO
    Groundwater ............ NO
    Flow Routing ........... YES
    Ponding Allowed ........ NO
    Water Quality .......... NO
  Flow Routing Method ...... DYNWAVE
  Surcharge Method ......... EXTRAN
  Starting Date ............ 01/01/2014 00:00:00
  Ending Date .............. 01/01/2014 19:00:00
  Antecedent Dry Days ...... 5.0
  Report Time Step ......... 00:00:10
  Routing Time Step ........ 5.00 sec
  Variable Time Step ....... YES
  Maximum Trials ........... 8
  Number of Threads ........ 1
  Head Tolerance ........... 0.001000 ft
  
  
  **************************        Volume        Volume
  Flow Routing Continuity        acre-feet      10^6 gal
  **************************     ---------     ---------
  Dry Weather Inflow .......         0.000         0.000
  Wet Weather Inflow .......         0.000         0.000
  Groundwater Inflow .......         0.000         0.000
  RDII Inflow ..............         0.000         0.000
  External Inflow ..........         0.000         0.000
  External Outflow .........         0.000         0.000
  Flooding Loss ............         0.000         0.000
  Evaporation Loss .........         0.000         0.000
  Exfiltration Loss ........         0.000         0.000
  Initial Stored Volume ....         0.004         0.001
  Final Stored Volume ......         0.004         0.001
  Continuity Error (%) .....         0.000
  
  
  ***************************
  Time-Step Critical Elements
  ***************************
  None
  
  
  ********************************
  Highest Flow Instability Indexes
  ********************************
  All links are stable.
  
  
  ******************
  Node Depth Summary
  ******************
  
  ---------------------------------------------------------------------------------
                                 Average  Maximum  Maximum  Time of Max    Reported
                                   Depth    Depth      HGL   Occurrence   Max Depth
  Node                 Type         Feet     Feet     Feet  days hr:min        Feet
  ---------------------------------------------------------------------------------
  D331MNH0103XX        JUNCTION  -nan(ind)     0.00    72.42     0  00:00        0.00
  D331MNH0104XX        JUNCTION  -nan(ind)     0.00    73.02     0  00:00        0.00
  D331MNH0115XX        JUNCTION  -nan(ind)     0.00    74.23     0  00:00        0.00
  D331MNH1559XX        JUNCTION  -nan(ind)     0.00    71.48     0  00:00        0.00
  D350MNH0103XX        JUNCTION  -nan(ind)     0.00    69.88     0  00:00        0.00
  D350MNH0109XX        JUNCTION  -nan(ind)     0.00    68.15     0  00:00        0.00
  D350MNH0110XX        JUNCTION  -nan(ind)     0.00    67.94     0  00:00        0.00
  D350MNH0113XX        JUNCTION  -nan(ind)     0.00    66.51     0  00:00        0.00
  D350MNH0114XX        JUNCTION  -nan(ind)     0.00    65.91     0  00:00        0.00
  D350MNH0115XX        JUNCTION  -nan(ind)     0.00    65.40     0  00:00        0.00
  D350MNH1554XX        JUNCTION  -nan(ind)     0.00    70.13     0  00:00        0.00
  S105MNH0201XX        JUNCTION  -nan(ind)     0.00    97.68     0  00:00        0.00
  S105MNH0202XX        JUNCTION  -nan(ind)     0.00   105.48     0  00:00        0.00
  S105MNH0203XX        JUNCTION  -nan(ind)     0.00   105.04     0  00:00        0.00
  S105MNH0204XX        JUNCTION  -nan(ind)     0.00    99.47     0  00:00        0.00
  S105MNH0205XX        JUNCTION  -nan(ind)     0.00    99.80     0  00:00        0.00
  S106MNH0203XX        JUNCTION  -nan(ind)     0.00   109.24     0  00:00        0.00
  S106MNH0204XX        JUNCTION  -nan(ind)     0.00   108.19     0  00:00        0.00
  S106MNH0209XX        JUNCTION  -nan(ind)     0.00   107.14     0  00:00        0.00
  S106MNH0210XX        JUNCTION  -nan(ind)     0.00   106.09     0  00:00        0.00
  S107MNH0201XX        JUNCTION  -nan(ind)     0.00   110.49     0  00:00        0.00
  S107MNH0206XX        JUNCTION  -nan(ind)     0.00   110.93     0  00:00        0.00
  S107MNH0207XX        JUNCTION  -nan(ind)     0.00   111.54     0  00:00        0.00
  S109MNH0209XX        JUNCTION  -nan(ind)     0.00   134.50     0  00:00        0.00
  S109MNH0211XX        JUNCTION  -nan(ind)     0.00   135.72     0  00:00        0.00
  S109MNH0224XX        JUNCTION  -nan(ind)     0.00   134.90     0  00:00        0.00
  S113MNH0205XX        JUNCTION  -nan(ind)     0.00   182.90     0  00:00        0.00
  S113MNH0206XX        JUNCTION  -nan(ind)     0.00   180.62     0  00:00        0.00
  S113MNH0207XX        JUNCTION  -nan(ind)     0.00   177.04     0  00:00        0.00
  S113MNH0208XX        JUNCTION  -nan(ind)     0.00   176.20     0  00:00        0.00
  S113MNH0209XX        JUNCTION  -nan(ind)     0.00   175.86     0  00:00        0.00
  S113MNH0210XX        JUNCTION  -nan(ind)     0.00   175.46     0  00:00        0.00
  S113MNH0211XX        JUNCTION  -nan(ind)     0.00   174.69     0  00:00        0.00
  S113MNH0212XX        JUNCTION  -nan(ind)     0.00   174.34     0  00:00        0.00
  S114MNH0209XX        JUNCTION  -nan(ind)     0.00   195.15     0  00:00        0.00
  S114MNH0210XX        JUNCTION  -nan(ind)     0.00   194.23     0  00:00        0.00
  S114MNH0211XX        JUNCTION  -nan(ind)     0.00   190.83     0  00:00        0.00
  S114MNH0212XX        JUNCTION  -nan(ind)     0.00   188.74     0  00:00        0.00
  S114MNH0221XX        JUNCTION  -nan(ind)     0.00   187.43     0  00:00        0.00
  S114MNH0222XX        JUNCTION  -nan(ind)     0.00   186.40     0  00:00        0.00
  S114MNH0223XX        JUNCTION  -nan(ind)     0.00   184.03     0  00:00        0.00
  S114MNH0224XX        JUNCTION  -nan(ind)     0.00   193.50     0  00:00        0.00
  S114MNH0225XX        JUNCTION  -nan(ind)     0.00   191.90     0  00:00        0.00
  S115MNH0204XX        JUNCTION  -nan(ind)     0.00   191.05     0  00:00        0.00
  S115MNH0206XX        JUNCTION  -nan(ind)     0.00   194.40     0  00:00        0.00
  S115MNH0208XX        JUNCTION  -nan(ind)     0.00   197.83     0  00:00        0.00
  S115MNH0209XX        JUNCTION  -nan(ind)     0.00   197.20     0  00:00        0.00
  S115MNH0210XX        JUNCTION  -nan(ind)     0.00   197.04     0  00:00        0.00
  S115MNH0211XX        JUNCTION  -nan(ind)     0.00   195.81     0  00:00        0.00
  S126MNH0205XX        JUNCTION  -nan(ind)     0.00   181.15     0  00:00        0.00
  S126MNH0209XX        JUNCTION  -nan(ind)     0.00   185.68     0  00:00        0.00
  S126MNH0210XX        JUNCTION  -nan(ind)     0.00   183.41     0  00:00        0.00
  S126MNH0220XX        JUNCTION  -nan(ind)     0.00   188.41     0  00:00        0.00
  S128MNH0210XX        JUNCTION  -nan(ind)     0.00   173.52     0  00:00        0.00
  S128MNH0214XX        JUNCTION  -nan(ind)     0.00   170.95     0  00:00        0.00
  S128MNH0215XX        JUNCTION  -nan(ind)     0.00   169.68     0  00:00        0.00
  S128MNH0218XX        JUNCTION  -nan(ind)     0.00   168.43     0  00:00        0.00
  S128MNH0219XX        JUNCTION  -nan(ind)     0.00   167.81     0  00:00        0.00
  S132MNH0211XX        JUNCTION  -nan(ind)     0.00   132.48     0  00:00        0.00
  S132MNH0213XX        JUNCTION  -nan(ind)     0.00   131.02     0  00:00        0.00
  S132MNH0215XX        JUNCTION  -nan(ind)     0.00   129.36     0  00:00        0.00
  S132MNH0217XX        JUNCTION  -nan(ind)     0.00   127.52     0  00:00        0.00
  S135MNH0214XX        JUNCTION  -nan(ind)     0.00    97.37     0  00:00        0.00
  S135MNH0215XX        JUNCTION  -nan(ind)     0.00    95.06     0  00:00        0.00
  S145MNH1202XX        JUNCTION  -nan(ind)     0.00    89.93     0  00:00        0.00
  S149MNH0201XX        JUNCTION  -nan(ind)     0.00   125.66     0  00:00        0.00
  S149MNH0216XX        JUNCTION  -nan(ind)     0.00   125.99     0  00:00        0.00
  S149MNH0218XX        JUNCTION  -nan(ind)     0.00   127.10     0  00:00        0.00
  S149MNH0219XX        JUNCTION  -nan(ind)     0.00   125.72     0  00:00        0.00
  S149MNH0225XX        JUNCTION  -nan(ind)     0.00   124.84     0  00:00        0.00
  S153MNH0213XX        JUNCTION  -nan(ind)     0.00   164.48     0  00:00        0.00
  S153MNH0214XX        JUNCTION  -nan(ind)     0.00   163.25     0  00:00        0.00
  S153MNH0218XX        JUNCTION  -nan(ind)     0.00   161.80     0  00:00        0.00
  S153MNH0219XX        JUNCTION  -nan(ind)     0.00   166.24     0  00:00        0.00
  S153MNH0238XX        JUNCTION  -nan(ind)     0.00   160.66     0  00:00        0.00
  S155MNH0201XX        JUNCTION  -nan(ind)     0.00   173.80     0  00:00        0.00
  S155MNH0202XX        JUNCTION  -nan(ind)     0.00   175.51     0  00:00        0.00
  S155MNH0203XX        JUNCTION  -nan(ind)     0.00   177.80     0  00:00        0.00
  S155MNH0204XX        JUNCTION  -nan(ind)     0.00   178.31     0  00:00        0.00
  S161MNH0201XX        JUNCTION  -nan(ind)     0.00   198.40     0  00:00        0.00
  S162MNH0203XX        JUNCTION  -nan(ind)     0.00   196.00     0  00:00        0.00
  S162MNH0204XX        JUNCTION  -nan(ind)     0.00   193.50     0  00:00        0.00
  S162MNH0212XX        JUNCTION  -nan(ind)     0.00   187.40     0  00:00        0.00
  S162MNH0213XX        JUNCTION  -nan(ind)     0.00   189.60     0  00:00        0.00
  S162MNH0219XX        JUNCTION  -nan(ind)     0.00   189.50     0  00:00        0.00
  S163MNH0210XX        JUNCTION  -nan(ind)     0.00   180.00     0  00:00        0.00
  S163MNH0211XX        JUNCTION  -nan(ind)     0.00   184.44     0  00:00        0.00
  S163MNH0212XX        JUNCTION  -nan(ind)     0.00   185.98     0  00:00        0.00
  S163MNH0219XX        JUNCTION  -nan(ind)     0.00   185.30     0  00:00        0.00
  S163MNH0220XX        JUNCTION  -nan(ind)     0.00   181.13     0  00:00        0.00
  S164MNH0203XX        JUNCTION  -nan(ind)     0.00   178.01     0  00:00        0.00
  S164MNH0204XX        JUNCTION  -nan(ind)     0.00   176.87     0  00:00        0.00
  S164MNH0205XX        JUNCTION  -nan(ind)     0.00   174.75     0  00:00        0.00
  S164MNH0206XX        JUNCTION  -nan(ind)     0.00   173.56     0  00:00        0.00
  S165MNH0218XX        JUNCTION  -nan(ind)     0.00   170.93     0  00:00        0.00
  S165MNH0226XX        JUNCTION  -nan(ind)     0.00   168.67     0  00:00        0.00
  S165MNH0230XX        JUNCTION  -nan(ind)     0.00   169.15     0  00:00        0.00
  S166MNH0217XX        JUNCTION  -nan(ind)     0.00   166.47     0  00:00        0.00
  S166MNH0218XX        JUNCTION  -nan(ind)     0.00   172.74     0  00:00        0.00
  S166MNH0219XX        JUNCTION  -nan(ind)     0.00   165.30     0  00:00        0.00
  S166MNH0229XX        JUNCTION  -nan(ind)     0.00   166.40     0  00:00        0.00
  S167MNH0204XX        JUNCTION  -nan(ind)     0.00   163.65     0  00:00        0.00
  S167MNH0205XX        JUNCTION  -nan(ind)     0.00   162.22     0  00:00        0.00
  S167MNH0206XX        JUNCTION  -nan(ind)     0.00   160.82     0  00:00        0.00
  S167MNH0207XX        JUNCTION  -nan(ind)     0.00   159.52     0  00:00        0.00
  S168MNH0204XX        JUNCTION  -nan(ind)     0.00   154.88     0  00:00        0.00
  S168MNH0205XX        JUNCTION  -nan(ind)     0.00   154.44     0  00:00        0.00
  S168MNH0206XX        JUNCTION  -nan(ind)     0.00   153.92     0  00:00        0.00
  S168MNH0207XX        JUNCTION  -nan(ind)     0.00   154.05     0  00:00        0.00
  S168MNH0208XX        JUNCTION  -nan(ind)     0.00   158.04     0  00:00        0.00
  S168MNH0209XX        JUNCTION  -nan(ind)     0.00   152.80     0  00:00        0.00
  S168MNH0212XX        JUNCTION  -nan(ind)     0.00   155.51     0  00:00        0.00
  S168MNH0213XX        JUNCTION  -nan(ind)     0.00   156.97     0  00:00        0.00
  S169MNH0210XX        JUNCTION  -nan(ind)     0.00   151.26     0  00:00        0.00
  S169MNH0211XX        JUNCTION  -nan(ind)     0.00   149.71     0  00:00        0.00
  S169MNH0212XX        JUNCTION  -nan(ind)     0.00   148.57     0  00:00        0.00
  S169MNH0214XX        JUNCTION  -nan(ind)     0.00   146.61     0  00:00        0.00
  S169MNH0220XX        JUNCTION  -nan(ind)     0.00   148.16     0  00:00        0.00
  S170MNH0203XX        JUNCTION  -nan(ind)     0.00   140.21     0  00:00        0.00
  S170MNH0204XX        JUNCTION  -nan(ind)     0.00   136.75     0  00:00        0.00
  S170MNH0205XX        JUNCTION  -nan(ind)     0.00   135.00     0  00:00        0.00
  S170MNH0218XX        JUNCTION  -nan(ind)     0.00   143.45     0  00:00        0.00
  S170MNH0250XX        JUNCTION  -nan(ind)     0.00   143.78     0  00:00        0.00
  S170MNH0251XX        JUNCTION  -nan(ind)     0.00   141.80     0  00:00        0.00
  S171MNH0208XX        JUNCTION  -nan(ind)     0.00   127.20     0  00:00        0.00
  S171MNH0209XX        JUNCTION  -nan(ind)     0.00   128.17     0  00:00        0.00
  S171MNH0210XX        JUNCTION  -nan(ind)     0.00   129.37     0  00:00        0.00
  S171MNH0211XX        JUNCTION  -nan(ind)     0.00   132.47     0  00:00        0.00
  S171MNH0219XX        JUNCTION  -nan(ind)     0.00   128.15     0  00:00        0.00
  S171MNH0220XX        JUNCTION  -nan(ind)     0.00   127.01     0  00:00        0.00
  S172MNH0201XX        JUNCTION  -nan(ind)     0.00   125.87     0  00:00        0.00
  S172MNH0207XX        JUNCTION  -nan(ind)     0.00   118.83     0  00:00        0.00
  S172MNH0208XX        JUNCTION  -nan(ind)     0.00   119.12     0  00:00        0.00
  S172MNH0212XX        JUNCTION  -nan(ind)     0.00   123.93     0  00:00        0.00
  S172MNH0213XX        JUNCTION  -nan(ind)     0.00   123.19     0  00:00        0.00
  S172MNH0215XX        JUNCTION  -nan(ind)     0.00   121.04     0  00:00        0.00
  S173MNH0210XX        JUNCTION  -nan(ind)     0.00   109.01     0  00:00        0.00
  S173MNH0211XX        JUNCTION  -nan(ind)     0.00   108.79     0  00:00        0.00
  S173MNH0214XX        JUNCTION  -nan(ind)     0.00   110.75     0  00:00        0.00
  S173MNH0216XX        JUNCTION  -nan(ind)     0.00   112.92     0  00:00        0.00
  S173MNH0218XX        JUNCTION  -nan(ind)     0.00   116.10     0  00:00        0.00
  S174MNH0209XX        JUNCTION  -nan(ind)     0.00   100.70     0  00:00        0.00
  S174MNH0210XX        JUNCTION  -nan(ind)     0.00   103.39     0  00:00        0.00
  S174MNH0211XX        JUNCTION  -nan(ind)     0.00   105.92     0  00:00        0.00
  S175MNH0204XX        JUNCTION  -nan(ind)     0.00    96.65     0  00:00        0.00
  S175MNH0205XX        JUNCTION  -nan(ind)     0.00    98.11     0  00:00        0.00
  S175MNH0207XX        JUNCTION  -nan(ind)     0.00    93.00     0  00:00        0.00
  S175MNH0208XX        JUNCTION  -nan(ind)     0.00    96.50     0  00:00        0.00
  S175MNH0209XX        JUNCTION  -nan(ind)     0.00    95.54     0  00:00        0.00
  S176MNH0205XX        JUNCTION  -nan(ind)     0.00    84.80     0  00:00        0.00
  S176MNH0206XX        JUNCTION  -nan(ind)     0.00    90.38     0  00:00        0.00
  S185MNH0201XX        JUNCTION  -nan(ind)     0.00    80.07     0  00:00        0.00
  S189MNH0201XX        JUNCTION  -nan(ind)     0.00   113.88     0  00:00        0.00
  S189MNH0202XX        JUNCTION  -nan(ind)     0.00   113.14     0  00:00        0.00
  S189MNH0204XX        JUNCTION  -nan(ind)     0.00   112.48     0  00:00        0.00
  S189MNH0205XX        JUNCTION  -nan(ind)     0.00   111.08     0  00:00        0.00
  S189MNH0210XX        JUNCTION  -nan(ind)     0.00   112.08     0  00:00        0.00
  S189MNH0211XX        JUNCTION  -nan(ind)     0.00   113.41     0  00:00        0.00
  S189MNH0212XX        JUNCTION  -nan(ind)     0.00   115.22     0  00:00        0.00
  S189MNH0213XX        JUNCTION  -nan(ind)     0.00   115.58     0  00:00        0.00
  S189MNH0218XX        JUNCTION  -nan(ind)     0.00   110.30     0  00:00        0.00
  S189MNH0219XX        JUNCTION  -nan(ind)     0.00   113.63     0  00:00        0.00
  S190MNH0221XX        JUNCTION  -nan(ind)     0.00   115.95     0  00:00        0.00
  S190MNH0223XX        JUNCTION  -nan(ind)     0.00   114.80     0  00:00        0.00
  S190MNH0229XX        JUNCTION  -nan(ind)     0.00   115.54     0  00:00        0.00
  S208MNH0213XX        JUNCTION  -nan(ind)     0.00   126.61     0  00:00        0.00
  S209MNH0203XX        JUNCTION  -nan(ind)     0.00   120.40     0  00:00        0.00
  S209MNH0213XX        JUNCTION  -nan(ind)     0.00   118.50     0  00:00        0.00
  S209MNH0214XX        JUNCTION  -nan(ind)     0.00   113.25     0  00:00        0.00
  S209MNH0215XX        JUNCTION  -nan(ind)     0.00   118.37     0  00:00        0.00
  S210MNH0214XX        JUNCTION  -nan(ind)     0.00   112.28     0  00:00        0.00
  S212MNH0202XX        JUNCTION  -nan(ind)     0.00   104.16     0  00:00        0.00
  S212MNH0203XX        JUNCTION  -nan(ind)     0.00   104.70     0  00:00        0.00
  S212MNH0205XX        JUNCTION  -nan(ind)     0.00   106.13     0  00:00        0.00
  S212MNH0207XX        JUNCTION  -nan(ind)     0.00   108.31     0  00:00        0.00
  S216MNH0202XX        JUNCTION  -nan(ind)     0.00    70.35     0  00:00        0.00
  S225MNH0203XX        JUNCTION  -nan(ind)     0.00    65.93     0  00:00        0.00
  S229MNH0201XX        JUNCTION  -nan(ind)     0.00    95.54     0  00:00        0.00
  S229MNH0208XX        JUNCTION  -nan(ind)     0.00   101.32     0  00:00        0.00
  S229MNH0222XX        JUNCTION  -nan(ind)     0.00    94.88     0  00:00        0.00
  S229MNH0223XX        JUNCTION  -nan(ind)     0.00    98.49     0  00:00        0.00
  S231MNH0201XX        JUNCTION  -nan(ind)     0.00   109.30     0  00:00        0.00
  S231MNH0202XX        JUNCTION  -nan(ind)     0.00   107.85     0  00:00        0.00
  S231MNH0203XX        JUNCTION  -nan(ind)     0.00   109.40     0  00:00        0.00
  S231MNH0206XX        JUNCTION  -nan(ind)     0.00   102.93     0  00:00        0.00
  S231MNH0207XX        JUNCTION  -nan(ind)     0.00   110.95     0  00:00        0.00
  S231MNH0208XX        JUNCTION  -nan(ind)     0.00   109.98     0  00:00        0.00
  S231MNH0226XX        JUNCTION  -nan(ind)     0.00   102.48     0  00:00        0.00
  S232MNH0204XX        JUNCTION  -nan(ind)     0.00   110.70     0  00:00        0.00
  S232MNH0206XX        JUNCTION  -nan(ind)     0.00   112.00     0  00:00        0.00
  S233MNH0201XX        JUNCTION  -nan(ind)     0.00   123.31     0  00:00        0.00
  S233MNH0202XX        JUNCTION  -nan(ind)     0.00   124.71     0  00:00        0.00
  S233MNH0208XX        JUNCTION  -nan(ind)     0.00   121.45     0  00:00        0.00
  S235MNH0203XX        JUNCTION  -nan(ind)     0.00   139.80     0  00:00        0.00
  S235MNH0205XX        JUNCTION  -nan(ind)     0.00   140.70     0  00:00        0.00
  S235MNH0214XX        JUNCTION  -nan(ind)     0.00   142.85     0  00:00        0.00
  S235MNH0227XX        JUNCTION  -nan(ind)     0.00   140.50     0  00:00        0.00
  S235MNH0228XX        JUNCTION  -nan(ind)     0.00   139.04     0  00:00        0.00
  S235MNH0231XX        JUNCTION  -nan(ind)     0.00   140.95     0  00:00        0.00
  S246MNH0203XX        JUNCTION  -nan(ind)     0.00   133.33     0  00:00        0.00
  S246MNH0204XX        JUNCTION  -nan(ind)     0.00   136.20     0  00:00        0.00
  S246MNH0205XX        JUNCTION  -nan(ind)     0.00   137.60     0  00:00        0.00
  S246MNH0227XX        JUNCTION  -nan(ind)     0.00   136.97     0  00:00        0.00
  S248MNH0201XX        JUNCTION  -nan(ind)     0.00   118.80     0  00:00        0.00
  S248MNH0204XX        JUNCTION  -nan(ind)     0.00   120.42     0  00:00        0.00
  S248MNH0209XX        JUNCTION  -nan(ind)     0.00   121.35     0  00:00        0.00
  S248MNH0226XX        JUNCTION  -nan(ind)     0.00   117.86     0  00:00        0.00
  S248MNH0227XX        JUNCTION  -nan(ind)     0.00   119.16     0  00:00        0.00
  S249MNH0203XX        JUNCTION  -nan(ind)     0.00   114.75     0  00:00        0.00
  S249MNH0215XX        JUNCTION  -nan(ind)     0.00   111.15     0  00:00        0.00
  S249MNH0217XX        JUNCTION  -nan(ind)     0.00   113.40     0  00:00        0.00
  S250MNH0206XX        JUNCTION  -nan(ind)     0.00   102.17     0  00:00        0.00
  S250MNH0209XX        JUNCTION  -nan(ind)     0.00   100.31     0  00:00        0.00
  S250MNH0211XX        JUNCTION  -nan(ind)     0.00    99.06     0  00:00        0.00
  S250MNH0223XX        JUNCTION  -nan(ind)     0.00    98.74     0  00:00        0.00
  S252MNH0206XX        JUNCTION  -nan(ind)     0.00    94.03     0  00:00        0.00
  S252MNH0207XX        JUNCTION  -nan(ind)     0.00    90.67     0  00:00        0.00
  S252MNH0208XX        JUNCTION  -nan(ind)     0.00    87.57     0  00:00        0.00
  S252MNH0209XX        JUNCTION  -nan(ind)     0.00    85.50     0  00:00        0.00
  S252MNH0211XX        JUNCTION  -nan(ind)     0.00    85.47     0  00:00        0.00
  S252MNH0223XX        JUNCTION  -nan(ind)     0.00    86.00     0  00:00        0.00
  S256MNH0210XX        JUNCTION  -nan(ind)     0.00    61.02     0  00:00        0.00
  S265MNH0202XX        JUNCTION  -nan(ind)     0.00    59.12     0  00:00        0.00
  S265MNH0203XX        JUNCTION  -nan(ind)     0.00    58.59     0  00:00        0.00
  S265MNH0204XX        JUNCTION  -nan(ind)     0.00    56.12     0  00:00        0.00
  S266MNH0201XX        JUNCTION  -nan(ind)     0.00    63.52     0  00:00        0.00
  S266MNH0202XX        JUNCTION  -nan(ind)     0.00    62.66     0  00:00        0.00
  S266MNH0203XX        JUNCTION  -nan(ind)     0.00    61.64     0  00:00        0.00
  S266MNH0211XX        JUNCTION  -nan(ind)     0.00    62.89     0  00:00        0.00
  S266MNH0212XX        JUNCTION  -nan(ind)     0.00    59.86     0  00:00        0.00
  S267MNH0205XX        JUNCTION  -nan(ind)     0.00    63.40     0  00:00        0.00
  S267MNH0206XX        JUNCTION  -nan(ind)     0.00    64.41     0  00:00        0.00
  S267MNH0207XX        JUNCTION  -nan(ind)     0.00    65.22     0  00:00        0.00
  S267MNH0208XX        JUNCTION  -nan(ind)     0.00    61.70     0  00:00        0.00
  S267MNH0209XX        JUNCTION  -nan(ind)     0.00    67.67     0  00:00        0.00
  S267MNH0210XX        JUNCTION  -nan(ind)     0.00    69.77     0  00:00        0.00
  S267MNH0211XX        JUNCTION  -nan(ind)     0.00    69.96     0  00:00        0.00
  S267MNH0227XX        JUNCTION  -nan(ind)     0.00    63.80     0  00:00        0.00
  S267MNH0229XX        JUNCTION  -nan(ind)     0.00    66.00     0  00:00        0.00
  S268MNH0206XX        JUNCTION  -nan(ind)     0.00    76.44     0  00:00        0.00
  S268MNH0207XX        JUNCTION  -nan(ind)     0.00    74.52     0  00:00        0.00
  S268MNH0208XX        JUNCTION  -nan(ind)     0.00    74.37     0  00:00        0.00
  S268MNH0210XX        JUNCTION  -nan(ind)     0.00    72.12     0  00:00        0.00
  S269MNH0207XX        JUNCTION  -nan(ind)     0.00    80.30     0  00:00        0.00
  S269MNH0208XX        JUNCTION  -nan(ind)     0.00    78.60     0  00:00        0.00
  S269MNH0209XX        JUNCTION  -nan(ind)     0.00    80.04     0  00:00        0.00
  S269MNH0210XX        JUNCTION  -nan(ind)     0.00    80.43     0  00:00        0.00
  S269MNH0211XX        JUNCTION  -nan(ind)     0.00    81.41     0  00:00        0.00
  S269MNH0213XX        JUNCTION  -nan(ind)     0.00    78.86     0  00:00        0.00
  S269MNH0214XX        JUNCTION  -nan(ind)     0.00    78.35     0  00:00        0.00
  S271MNH0204XX        JUNCTION  -nan(ind)     0.00    95.12     0  00:00        0.00
  S271MNH0206XX        JUNCTION  -nan(ind)     0.00    95.30     0  00:00        0.00
  S271MNH0207XX        JUNCTION  -nan(ind)     0.00    96.20     0  00:00        0.00
  S271MNH0208XX        JUNCTION  -nan(ind)     0.00    97.87     0  00:00        0.00
  S271MNH0231XX        JUNCTION  -nan(ind)     0.00    97.24     0  00:00        0.00
  S271MNH0233XX        JUNCTION  -nan(ind)     0.00    94.78     0  00:00        0.00
  S271MNH0234XX        JUNCTION  -nan(ind)     0.00    94.93     0  00:00        0.00
  S272MNH0207XX        JUNCTION  -nan(ind)     0.00   103.92     0  00:00        0.00
  S272MNH0208XX        JUNCTION  -nan(ind)     0.00   102.55     0  00:00        0.00
  S272MNH0210XX        JUNCTION  -nan(ind)     0.00   100.69     0  00:00        0.00
  S272MNH0216XX        JUNCTION  -nan(ind)     0.00   100.50     0  00:00        0.00
  S272MNH0217XX        JUNCTION  -nan(ind)     0.00   101.80     0  00:00        0.00
  S273MNH0201XX        JUNCTION  -nan(ind)     0.00   113.26     0  00:00        0.00
  S273MNH0202XX        JUNCTION  -nan(ind)     0.00   114.41     0  00:00        0.00
  S273MNH0203XX        JUNCTION  -nan(ind)     0.00   115.41     0  00:00        0.00
  S273MNH0204XX        JUNCTION  -nan(ind)     0.00   116.61     0  00:00        0.00
  S273MNH0210XX        JUNCTION  -nan(ind)     0.00   117.60     0  00:00        0.00
  S275MNH0205XX        JUNCTION  -nan(ind)     0.00   129.81     0  00:00        0.00
  S275MNH0207XX        JUNCTION  -nan(ind)     0.00   128.45     0  00:00        0.00
  S275MNH0208XX        JUNCTION  -nan(ind)     0.00   128.30     0  00:00        0.00
  S275MNH0210XX        JUNCTION  -nan(ind)     0.00   127.45     0  00:00        0.00
  S275MNH0211XX        JUNCTION  -nan(ind)     0.00   126.74     0  00:00        0.00
  S286MNH0201XX        JUNCTION  -nan(ind)     0.00   119.36     0  00:00        0.00
  S286MNH0211XX        JUNCTION  -nan(ind)     0.00   126.00     0  00:00        0.00
  S286MNH0213XX        JUNCTION  -nan(ind)     0.00   125.64     0  00:00        0.00
  S286MNH0216XX        JUNCTION  -nan(ind)     0.00   122.40     0  00:00        0.00
  S286MNH0217XX        JUNCTION  -nan(ind)     0.00   118.92     0  00:00        0.00
  S286MNH0220XX        JUNCTION  -nan(ind)     0.00   117.33     0  00:00        0.00
  S286TEE1045XX        JUNCTION  -nan(ind)     0.00   121.92     0  00:00        0.00
  S287MNH0202XX        JUNCTION  -nan(ind)     0.00   114.32     0  00:00        0.00
  S287MNH0203XX        JUNCTION  -nan(ind)     0.00   115.75     0  00:00        0.00
  S287MNH0208XX        JUNCTION  -nan(ind)     0.00   113.86     0  00:00        0.00
  S287MNH0209XX        JUNCTION  -nan(ind)     0.00   113.06     0  00:00        0.00
  S287MNH0210XX        JUNCTION  -nan(ind)     0.00   111.70     0  00:00        0.00
  S288MNH0201XX        JUNCTION  -nan(ind)     0.00   111.04     0  00:00        0.00
  S288MNH0206XX        JUNCTION  -nan(ind)     0.00   110.15     0  00:00        0.00
  S288MNH0208XX        JUNCTION  -nan(ind)     0.00   109.53     0  00:00        0.00
  S288MNH0209XX        JUNCTION  -nan(ind)     0.00   108.70     0  00:00        0.00
  S288MNH0210XX        JUNCTION  -nan(ind)     0.00   108.25     0  00:00        0.00
  S288MNH0211XX        JUNCTION  -nan(ind)     0.00   107.56     0  00:00        0.00
  S288MNH0219XX        JUNCTION  -nan(ind)     0.00   106.15     0  00:00        0.00
  S288MNH0220XX        JUNCTION  -nan(ind)     0.00   105.07     0  00:00        0.00
  S290MNH0220XX        JUNCTION  -nan(ind)     0.00    92.87     0  00:00        0.00
  S290MNH0221XX        JUNCTION  -nan(ind)     0.00    91.26     0  00:00        0.00
  S290MNH0222XX        JUNCTION  -nan(ind)     0.00    90.86     0  00:00        0.00
  S290MNH0223XX        JUNCTION  -nan(ind)     0.00    89.01     0  00:00        0.00
  S292MNH0201XX        JUNCTION  -nan(ind)     0.00    66.52     0  00:00        0.00
  S292MNH0209XX        JUNCTION  -nan(ind)     0.00    74.81     0  00:00        0.00
  S292MNH0210XX        JUNCTION  -nan(ind)     0.00    73.25     0  00:00        0.00
  S293MNH0201XX        JUNCTION  -nan(ind)     0.00    62.37     0  00:00        0.00
  S293MNH0202XX        JUNCTION  -nan(ind)     0.00    65.91     0  00:00        0.00
  S293MNH0203XX        JUNCTION  -nan(ind)     0.00    65.44     0  00:00        0.00
  S293MNH0204XX        JUNCTION  -nan(ind)     0.00    64.97     0  00:00        0.00
  S293MNH0205XX        JUNCTION  -nan(ind)     0.00    64.42     0  00:00        0.00
  S293MNH0206XX        JUNCTION  -nan(ind)     0.00    63.40     0  00:00        0.00
  S293MNH0207XX        JUNCTION  -nan(ind)     0.00    63.27     0  00:00        0.00
  S293MNH0224XX        JUNCTION  -nan(ind)     0.00    62.30     0  00:00        0.00
  S294MNH0203XX        JUNCTION  -nan(ind)     0.00    61.22     0  00:00        0.00
  S294MNH0205XX        JUNCTION  -nan(ind)     0.00    60.02     0  00:00        0.00
  S294MNH0206XX        JUNCTION  -nan(ind)     0.00    59.42     0  00:00        0.00
  S294MNH0207XX        JUNCTION  -nan(ind)     0.00    58.30     0  00:00        0.00
  S294MNH0218XX        JUNCTION  -nan(ind)     0.00    60.62     0  00:00        0.00
  S295MNH0201XX        JUNCTION  -nan(ind)     0.00    57.12     0  00:00        0.00
  S295MNH0202XX        JUNCTION  -nan(ind)     0.00    56.22     0  00:00        0.00
  S295MNH0203XX        JUNCTION  -nan(ind)     0.00    55.37     0  00:00        0.00
  S295MNH0204XX        JUNCTION  -nan(ind)     0.00    54.25     0  00:00        0.00
  S295MNH0207XX        JUNCTION  -nan(ind)     0.00    55.25     0  00:00        0.00
  S295MNH0208XX        JUNCTION  -nan(ind)     0.00    54.78     0  00:00        0.00
  S295MNH0209XX        JUNCTION  -nan(ind)     0.00    54.32     0  00:00        0.00
  S295MNH0210XX        JUNCTION  -nan(ind)     0.00    53.90     0  00:00        0.00
  S295MNH0211XX        JUNCTION  -nan(ind)     0.00    53.44     0  00:00        0.00
  S295MNH0212XX        JUNCTION  -nan(ind)     0.00    53.23     0  00:00        0.00
  S296MNH0201XX        JUNCTION  -nan(ind)     0.00    50.84     0  00:00        0.00
  S296MNH0202XX        JUNCTION  -nan(ind)     0.00    49.30     0  00:00        0.00
  S296MNH0203XX        JUNCTION  -nan(ind)     0.00    52.20     0  00:00        0.00
  S296MNH0209XX        JUNCTION  -nan(ind)     0.00    52.08     0  00:00        0.00
  S296MNH0211XX        JUNCTION  -nan(ind)     0.00    52.95     0  00:00        0.00
  S296MNH0212XX        JUNCTION  -nan(ind)     0.00    52.49     0  00:00        0.00
  S299MNH0201XX        JUNCTION  -nan(ind)     0.00    38.20     0  00:00        0.00
  S302MNH0201XX        JUNCTION  -nan(ind)     0.00    36.40     0  00:00        0.00
  S302MNH0202XX        JUNCTION  -nan(ind)     0.00    35.28     0  00:00        0.00
  S302MNH0203XX        JUNCTION  -nan(ind)     0.00    34.20     0  00:00        0.00
  S302MNH0204XX        JUNCTION  -nan(ind)     0.00    37.50     0  00:00        0.00
  S305MNH0201XX        JUNCTION  -nan(ind)     0.00    44.28     0  00:00        0.00
  S305MNH0202XX        JUNCTION  -nan(ind)     0.00    45.25     0  00:00        0.00
  S305MNH0203XX        JUNCTION  -nan(ind)     0.00    45.87     0  00:00        0.00
  S305MNH0204XX        JUNCTION  -nan(ind)     0.00    46.00     0  00:00        0.00
  S305MNH0205XX        JUNCTION  -nan(ind)     0.00    47.20     0  00:00        0.00
  S305MNH0206XX        JUNCTION  -nan(ind)     0.00    46.93     0  00:00        0.00
  S305MNH0207XX        JUNCTION  -nan(ind)     0.00    47.34     0  00:00        0.00
  S305MNH0208XX        JUNCTION  -nan(ind)     0.00    46.56     0  00:00        0.00
  S305MNH0209XX        JUNCTION  -nan(ind)     0.00    43.69     0  00:00        0.00
  S306MNH0201XX        JUNCTION  -nan(ind)     0.00    53.58     0  00:00        0.00
  S306MNH0202XX        JUNCTION  -nan(ind)     0.00    50.58     0  00:00        0.00
  S306MNH0203XX        JUNCTION  -nan(ind)     0.00    49.40     0  00:00        0.00
  S306MNH0204XX        JUNCTION  -nan(ind)     0.00    48.30     0  00:00        0.00
  S309MNH0201XX        JUNCTION  -nan(ind)     0.00    71.17     0  00:00        0.00
  S309MNH0202XX        JUNCTION  -nan(ind)     0.00    70.04     0  00:00        0.00
  S309MNH0203XX        JUNCTION  -nan(ind)     0.00    68.91     0  00:00        0.00
  S309MNH0204XX        JUNCTION  -nan(ind)     0.00    68.24     0  00:00        0.00
  S309MNH0205XX        JUNCTION  -nan(ind)     0.00    70.26     0  00:00        0.00
  S309MNH0207XX        JUNCTION  -nan(ind)     0.00    67.68     0  00:00        0.00
  S309MNH0208XX        JUNCTION  -nan(ind)     0.00    67.12     0  00:00        0.00
  S309MNH0210XX        JUNCTION  -nan(ind)     0.00    67.35     0  00:00        0.00
  S309MNH0211XX        JUNCTION  -nan(ind)     0.00    68.26     0  00:00        0.00
  S309MNH0212XX        JUNCTION  -nan(ind)     0.00    66.65     0  00:00        0.00
  S309MNH0213XX        JUNCTION  -nan(ind)     0.00    68.70     0  00:00        0.00
  S310MNH0201XX        JUNCTION  -nan(ind)     0.00    75.82     0  00:00        0.00
  S310MNH0202XX        JUNCTION  -nan(ind)     0.00    74.69     0  00:00        0.00
  S310MNH0203XX        JUNCTION  -nan(ind)     0.00    73.67     0  00:00        0.00
  S310MNH0204XX        JUNCTION  -nan(ind)     0.00    73.61     0  00:00        0.00
  S310MNH0205XX        JUNCTION  -nan(ind)     0.00    73.43     0  00:00        0.00
  S310MNH0206XX        JUNCTION  -nan(ind)     0.00    73.33     0  00:00        0.00
  S310MNH0207XX        JUNCTION  -nan(ind)     0.00    72.28     0  00:00        0.00
  S310MNH0217XX        JUNCTION  -nan(ind)     0.00    75.51     0  00:00        0.00
  S310MNH0218XX        JUNCTION  -nan(ind)     0.00    75.07     0  00:00        0.00
  S310MNH0219XX        JUNCTION  -nan(ind)     0.00    74.16     0  00:00        0.00
  S310MNH0220XX        JUNCTION  -nan(ind)     0.00    73.13     0  00:00        0.00
  S310MNH0221XX        JUNCTION  -nan(ind)     0.00    72.12     0  00:00        0.00
  S310MNH0238XX        JUNCTION  -nan(ind)     0.00    73.70     0  00:00        0.00
  S310MNH0239XX        JUNCTION  -nan(ind)     0.00    74.62     0  00:00        0.00
  S311MNH0220XX        JUNCTION  -nan(ind)     0.00    84.16     0  00:00        0.00
  S311MNH0227XX        JUNCTION  -nan(ind)     0.00    83.36     0  00:00        0.00
  S311MNH0228XX        JUNCTION  -nan(ind)     0.00    82.26     0  00:00        0.00
  S311MNH1604XX        JUNCTION  -nan(ind)     0.00    85.87     0  00:00        0.00
  S313MNH0219XX        JUNCTION  -nan(ind)     0.00   101.23     0  00:00        0.00
  S316MNH0220XX        JUNCTION  -nan(ind)     0.00   124.85     0  00:00        0.00
  S317MNH0203XX        JUNCTION  -nan(ind)     0.00   125.96     0  00:00        0.00
  S317MNH0204XX        JUNCTION  -nan(ind)     0.00   126.72     0  00:00        0.00
  S317MNH0205XX        JUNCTION  -nan(ind)     0.00   127.25     0  00:00        0.00
  S317MNH0206XX        JUNCTION  -nan(ind)     0.00   129.34     0  00:00        0.00
  S317MNH0207XX        JUNCTION  -nan(ind)     0.00   129.95     0  00:00        0.00
  S317MNH0208XX        JUNCTION  -nan(ind)     0.00   131.09     0  00:00        0.00
  S317MNH0209XX        JUNCTION  -nan(ind)     0.00   131.79     0  00:00        0.00
  S317MNH0220XX        JUNCTION  -nan(ind)     0.00   125.68     0  00:00        0.00
  S318MNH0218XX        JUNCTION  -nan(ind)     0.00   132.35     0  00:00        0.00
  S318MNH0222XX        JUNCTION  -nan(ind)     0.00   132.49     0  00:00        0.00
  S323MNH0201XX        JUNCTION  -nan(ind)     0.00   127.09     0  00:00        0.00
  S323MNH0202XX        JUNCTION  -nan(ind)     0.00   127.71     0  00:00        0.00
  S323MNH0203XX        JUNCTION  -nan(ind)     0.00   132.75     0  00:00        0.00
  S323MNH0207XX        JUNCTION  -nan(ind)     0.00   133.85     0  00:00        0.00
  S323MNH0208XX        JUNCTION  -nan(ind)     0.00   133.21     0  00:00        0.00
  S323MNH0212XX        JUNCTION  -nan(ind)     0.00   134.53     0  00:00        0.00
  S325MNH0201XX        JUNCTION  -nan(ind)     0.00   117.08     0  00:00        0.00
  S325MNH0202XX        JUNCTION  -nan(ind)     0.00   118.75     0  00:00        0.00
  S325MNH0216XX        JUNCTION  -nan(ind)     0.00   121.93     0  00:00        0.00
  S325MNH0217XX        JUNCTION  -nan(ind)     0.00   120.75     0  00:00        0.00
  S328MNH0213XX        JUNCTION  -nan(ind)     0.00    93.43     0  00:00        0.00
  S328MNH0214XX        JUNCTION  -nan(ind)     0.00    97.05     0  00:00        0.00
  S328MNH0215XX        JUNCTION  -nan(ind)     0.00    97.91     0  00:00        0.00
  S328MNH0216XX        JUNCTION  -nan(ind)     0.00    98.35     0  00:00        0.00
  S328MNH0218XX        JUNCTION  -nan(ind)     0.00    99.61     0  00:00        0.00
  S328MNH0224XX        JUNCTION  -nan(ind)     0.00    98.63     0  00:00        0.00
  S329MNH0208XX        JUNCTION  -nan(ind)     0.00    80.20     0  00:00        0.00
  S329MNH0219XX        JUNCTION  -nan(ind)     0.00    92.71     0  00:00        0.00
  S329MNH0220XX        JUNCTION  -nan(ind)     0.00    90.65     0  00:00        0.00
  S329MNH0221XX        JUNCTION  -nan(ind)     0.00    89.35     0  00:00        0.00
  S330MNH0202XX        JUNCTION  -nan(ind)     0.00    78.76     0  00:00        0.00
  S330MNH0204XX        JUNCTION  -nan(ind)     0.00    78.90     0  00:00        0.00
  S330MNH0209XX        JUNCTION  -nan(ind)     0.00    77.50     0  00:00        0.00
  S330MNH0210XX        JUNCTION  -nan(ind)     0.00    77.41     0  00:00        0.00
  S330MNH0211XX        JUNCTION  -nan(ind)     0.00    77.47     0  00:00        0.00
  S330MNH0212XX        JUNCTION  -nan(ind)     0.00    76.39     0  00:00        0.00
  S330MNH0213XX        JUNCTION  -nan(ind)     0.00    77.66     0  00:00        0.00
  S330MNH0216XX        JUNCTION  -nan(ind)     0.00    79.20     0  00:00        0.00
  S330MNH0217XX        JUNCTION  -nan(ind)     0.00    76.20     0  00:00        0.00
  S330MNH0218XX        JUNCTION  -nan(ind)     0.00    76.16     0  00:00        0.00
  S330MNH0219XX        JUNCTION  -nan(ind)     0.00    80.28     0  00:00        0.00
  S330MNH0225XX        JUNCTION  -nan(ind)     0.00    77.75     0  00:00        0.00
  S330MNH0227XX        JUNCTION  -nan(ind)     0.00    78.50     0  00:00        0.00
  S330MNH0228XX        JUNCTION  -nan(ind)     0.00    77.06     0  00:00        0.00
  S331MNH0202XX        JUNCTION  -nan(ind)     0.00    73.69     0  00:00        0.00
  S331MNH0203XX        JUNCTION  -nan(ind)     0.00    74.56     0  00:00        0.00
  S331MNH0204XX        JUNCTION  -nan(ind)     0.00    75.19     0  00:00        0.00
  S331MNH0206XX        JUNCTION  -nan(ind)     0.00    76.85     0  00:00        0.00
  S331MNH0207XX        JUNCTION  -nan(ind)     0.00    74.18     0  00:00        0.00
  S331MNH0214XX        JUNCTION  -nan(ind)     0.00    77.86     0  00:00        0.00
  S331MNH0215XX        JUNCTION  -nan(ind)     0.00    74.46     0  00:00        0.00
  S331MNH0216XX        JUNCTION  -nan(ind)     0.00    76.76     0  00:00        0.00
  S331MNH0217XX        JUNCTION  -nan(ind)     0.00    76.35     0  00:00        0.00
  S331MNH0219XX        JUNCTION  -nan(ind)     0.00    78.10     0  00:00        0.00
  S332MNH0205XX        JUNCTION  -nan(ind)     0.00    60.39     0  00:00        0.00
  S332MNH0206XX        JUNCTION  -nan(ind)     0.00    60.90     0  00:00        0.00
  S332MNH0207XX        JUNCTION  -nan(ind)     0.00    61.37     0  00:00        0.00
  S332MNH0208XX        JUNCTION  -nan(ind)     0.00    63.14     0  00:00        0.00
  S332MNH0209XX        JUNCTION  -nan(ind)     0.00    63.55     0  00:00        0.00
  S332MNH0210XX        JUNCTION  -nan(ind)     0.00    65.61     0  00:00        0.00
  S332MNH0212XX        JUNCTION  -nan(ind)     0.00    57.99     0  00:00        0.00
  S332MNH0214XX        JUNCTION  -nan(ind)     0.00    64.62     0  00:00        0.00
  S333MNH0203XX        JUNCTION  -nan(ind)     0.00    57.34     0  00:00        0.00
  S333MNH0204XX        JUNCTION  -nan(ind)     0.00    57.05     0  00:00        0.00
  S333MNH0206XX        JUNCTION  -nan(ind)     0.00    54.29     0  00:00        0.00
  S334MNH0201XX        JUNCTION  -nan(ind)     0.00    52.39     0  00:00        0.00
  S334MNH0202XX        JUNCTION  -nan(ind)     0.00    50.88     0  00:00        0.00
  S335MNH0201XX        JUNCTION  -nan(ind)     0.00    48.09     0  00:00        0.00
  S335MNH0202XX        JUNCTION  -nan(ind)     0.00    45.39     0  00:00        0.00
  S336MNH0201XX        JUNCTION  -nan(ind)     0.00    43.31     0  00:00        0.00
  S336MNH0202XX        JUNCTION  -nan(ind)     0.00    41.94     0  00:00        0.00
  S336MNH0207XX        JUNCTION  -nan(ind)     0.00    38.32     0  00:00        0.00
  S337MNH0201XX        JUNCTION  -nan(ind)     0.00    38.50     0  00:00        0.00
  S337MNH0203XX        JUNCTION  -nan(ind)     0.00    39.06     0  00:00        0.00
  S337MNH0204XX        JUNCTION  -nan(ind)     0.00    39.62     0  00:00        0.00
  S337MNH0205XX        JUNCTION  -nan(ind)     0.00    40.18     0  00:00        0.00
  S337MNH0206XX        JUNCTION  -nan(ind)     0.00    37.95     0  00:00        0.00
  S337MNH0207XX        JUNCTION  -nan(ind)     0.00    37.40     0  00:00        0.00
  S337MNH0208XX        JUNCTION  -nan(ind)     0.00    39.74     0  00:00        0.00
  S338MNH0201XX        JUNCTION  -nan(ind)     0.00    40.74     0  00:00        0.00
  S338MNH0202XX        JUNCTION  -nan(ind)     0.00    41.21     0  00:00        0.00
  S338MNH0203XX        JUNCTION  -nan(ind)     0.00    29.28     0  00:00        0.00
  S338MNH0207XX        JUNCTION  -nan(ind)     0.00    30.21     0  00:00        0.00
  S338MNH0209XX        JUNCTION  -nan(ind)     0.00    31.18     0  00:00        0.00
  S339MNH0201XX        JUNCTION  -nan(ind)     0.00    32.15     0  00:00        0.00
  S339MNH0202XX        JUNCTION  -nan(ind)     0.00    33.12     0  00:00        0.00
  S339MNH0203XX        JUNCTION  -nan(ind)     0.00    33.17     0  00:00        0.00
  S343MNH0201XX        JUNCTION  -nan(ind)     0.00    29.49     0  00:00        0.00
  S344MNH0201XX        JUNCTION  -nan(ind)     0.00    35.95     0  00:00        0.00
  S344MNH0202XX        JUNCTION  -nan(ind)     0.00    36.30     0  00:00        0.00
  S344MNH0203XX        JUNCTION  -nan(ind)     0.00    36.85     0  00:00        0.00
  S345MNH0201XX        JUNCTION  -nan(ind)     0.00    33.06     0  00:00        0.00
  S345MNH0202XX        JUNCTION  -nan(ind)     0.00    35.20     0  00:00        0.00
  S345MNH0203XX        JUNCTION  -nan(ind)     0.00    35.68     0  00:00        0.00
  S345MNH0208XX        JUNCTION  -nan(ind)     0.00    35.98     0  00:00        0.00
  S345MNH0209XX        JUNCTION  -nan(ind)     0.00    33.73     0  00:00        0.00
  S345MNH0210XX        JUNCTION  -nan(ind)     0.00    34.77     0  00:00        0.00
  S345MNH0211XX        JUNCTION  -nan(ind)     0.00    36.61     0  00:00        0.00
  S345MNH0214XX        JUNCTION  -nan(ind)     0.00    32.48     0  00:00        0.00
  S348MNH0201XX        JUNCTION  -nan(ind)     0.00    48.94     0  00:00        0.00
  S348MNH0202XX        JUNCTION  -nan(ind)     0.00    48.17     0  00:00        0.00
  S348MNH0210XX        JUNCTION  -nan(ind)     0.00    47.40     0  00:00        0.00
  S350MNH0201XX        JUNCTION  -nan(ind)     0.00    70.33     0  00:00        0.00
  S350MNH0202XX        JUNCTION  -nan(ind)     0.00    69.21     0  00:00        0.00
  S350MNH0204XX        JUNCTION  -nan(ind)     0.00    68.74     0  00:00        0.00
  S350MNH0205XX        JUNCTION  -nan(ind)     0.00    68.13     0  00:00        0.00
  S350MNH0206XX        JUNCTION  -nan(ind)     0.00    66.56     0  00:00        0.00
  S350MNH0207XX        JUNCTION  -nan(ind)     0.00    64.33     0  00:00        0.00
  S352MNH0202XX        JUNCTION  -nan(ind)     0.00    85.06     0  00:00        0.00
  S352MNH0203XX        JUNCTION  -nan(ind)     0.00    87.15     0  00:00        0.00
  S352MNH0204XX        JUNCTION  -nan(ind)     0.00    87.45     0  00:00        0.00
  S352MNH0205XX        JUNCTION  -nan(ind)     0.00    82.68     0  00:00        0.00
  S352MNH0208XX        JUNCTION  -nan(ind)     0.00    82.04     0  00:00        0.00
  S352MNH0209XX        JUNCTION  -nan(ind)     0.00    80.90     0  00:00        0.00
  S352MNH0210XX        JUNCTION  -nan(ind)     0.00    81.70     0  00:00        0.00
  S352MNH0213XX        JUNCTION  -nan(ind)     0.00    82.05     0  00:00        0.00
  S352MNH0216XX        JUNCTION  -nan(ind)     0.00    81.00     0  00:00        0.00
  S352MNH0219XX        JUNCTION  -nan(ind)     0.00    83.32     0  00:00        0.00
  S352MNH0221XX        JUNCTION  -nan(ind)     0.00    82.50     0  00:00        0.00
  S352MNH0223XX        JUNCTION  -nan(ind)     0.00    82.80     0  00:00        0.00
  S353MNH0207XX        JUNCTION  -nan(ind)     0.00    86.06     0  00:00        0.00
  S353MNH0208XX        JUNCTION  -nan(ind)     0.00    87.74     0  00:00        0.00
  S353MNH0209XX        JUNCTION  -nan(ind)     0.00    87.88     0  00:00        0.00
  S353MNH0210XX        JUNCTION  -nan(ind)     0.00    85.80     0  00:00        0.00
  S353MNH0212XX        JUNCTION  -nan(ind)     0.00    85.86     0  00:00        0.00
  S353MNH0225XX        JUNCTION  -nan(ind)     0.00    89.07     0  00:00        0.00
  S353MNH0227XX        JUNCTION  -nan(ind)     0.00    88.23     0  00:00        0.00
  S353MNH0228XX        JUNCTION  -nan(ind)     0.00    88.32     0  00:00        0.00
  S353MNH0231XX        JUNCTION  -nan(ind)     0.00    86.60     0  00:00        0.00
  S353MNH0232XX        JUNCTION  -nan(ind)     0.00    86.80     0  00:00        0.00
  S353MNH0234XX        JUNCTION  -nan(ind)     0.00    86.17     0  00:00        0.00
  S353MNH0236XX        JUNCTION  -nan(ind)     0.00    92.86     0  00:00        0.00
  S353MNH0253XX        JUNCTION  -nan(ind)     0.00    87.55     0  00:00        0.00
  S353MNH0255XX        JUNCTION  -nan(ind)     0.00    90.44     0  00:00        0.00
  S356MNH0201XX        JUNCTION  -nan(ind)     0.00   103.87     0  00:00        0.00
  S356MNH0202XX        JUNCTION  -nan(ind)     0.00   104.87     0  00:00        0.00
  S356MNH0203XX        JUNCTION  -nan(ind)     0.00   106.51     0  00:00        0.00
  S356MNH0204XX        JUNCTION  -nan(ind)     0.00   108.63     0  00:00        0.00
  S358MNH0201XX        JUNCTION  -nan(ind)     0.00   118.58     0  00:00        0.00
  S358MNH0202XX        JUNCTION  -nan(ind)     0.00   119.56     0  00:00        0.00
  S358MNH0203XX        JUNCTION  -nan(ind)     0.00   121.23     0  00:00        0.00
  S358MNH0209XX        JUNCTION  -nan(ind)     0.00   124.96     0  00:00        0.00
  S358MNH0221XX        JUNCTION  -nan(ind)     0.00   120.49     0  00:00        0.00
  S358MNH0222XX        JUNCTION  -nan(ind)     0.00   122.26     0  00:00        0.00
  S363MNH0202XX        JUNCTION  -nan(ind)     0.00   104.28     0  00:00        0.00
  S363MNH0209XX        JUNCTION  -nan(ind)     0.00   112.47     0  00:00        0.00
  S363MNH0210XX        JUNCTION  -nan(ind)     0.00   116.78     0  00:00        0.00
  S363MNH0213XX        JUNCTION  -nan(ind)     0.00   108.37     0  00:00        0.00
  S363TEE1050XX        JUNCTION  -nan(ind)     0.00   103.36     0  00:00        0.00
  S365MNH0205XX        JUNCTION  -nan(ind)     0.00   101.23     0  00:00        0.00
  S365MNH0206XX        JUNCTION  -nan(ind)     0.00    98.80     0  00:00        0.00
  S365MNH0209XX        JUNCTION  -nan(ind)     0.00    96.37     0  00:00        0.00
  S365MNH0210XX        JUNCTION  -nan(ind)     0.00    94.18     0  00:00        0.00
  S367MNH0201XX        JUNCTION  -nan(ind)     0.00    84.49     0  00:00        0.00
  S367MNH0203XX        JUNCTION  -nan(ind)     0.00    87.64     0  00:00        0.00
  S367MNH0211XX        JUNCTION  -nan(ind)     0.00    86.59     0  00:00        0.00
  S367MNH0212XX        JUNCTION  -nan(ind)     0.00    86.49     0  00:00        0.00
  S367MNH0213XX        JUNCTION  -nan(ind)     0.00    85.79     0  00:00        0.00
  S367MNH0214XX        JUNCTION  -nan(ind)     0.00    85.49     0  00:00        0.00
  S368MNH0202XX        JUNCTION  -nan(ind)     0.00    83.95     0  00:00        0.00
  S368MNH0203XX        JUNCTION  -nan(ind)     0.00    83.76     0  00:00        0.00
  S368MNH0204XX        JUNCTION  -nan(ind)     0.00    83.03     0  00:00        0.00
  S368MNH0206XX        JUNCTION  -nan(ind)     0.00    84.80     0  00:00        0.00
  S368MNH0211XX        JUNCTION  -nan(ind)     0.00    74.96     0  00:00        0.00
  S368MNH0212XX        JUNCTION  -nan(ind)     0.00    74.50     0  00:00        0.00
  S368MNH0214XX        JUNCTION  -nan(ind)     0.00    76.12     0  00:00        0.00
  S368MNH0215XX        JUNCTION  -nan(ind)     0.00    76.77     0  00:00        0.00
  S368MNH0216XX        JUNCTION  -nan(ind)     0.00    78.32     0  00:00        0.00
  S368MNH0223XX        JUNCTION  -nan(ind)     0.00    83.37     0  00:00        0.00
  S368MNH0225XX        JUNCTION  -nan(ind)     0.00    83.80     0  00:00        0.00
  S368MNH0226XX        JUNCTION  -nan(ind)     0.00    83.37     0  00:00        0.00
  S368MNH0227XX        JUNCTION  -nan(ind)     0.00    83.10     0  00:00        0.00
  S368MNH0228XX        JUNCTION  -nan(ind)     0.00    83.13     0  00:00        0.00
  S368MNH0233XX        JUNCTION  -nan(ind)     0.00    84.30     0  00:00        0.00
  S368MNH0234XX        JUNCTION  -nan(ind)     0.00    84.45     0  00:00        0.00
  S369MNH0201XX        JUNCTION  -nan(ind)     0.00    70.02     0  00:00        0.00
  S369MNH0209XX        JUNCTION  -nan(ind)     0.00    69.01     0  00:00        0.00
  S369MNH0214XX        JUNCTION  -nan(ind)     0.00    70.86     0  00:00        0.00
  S369MNH0218XX        JUNCTION  -nan(ind)     0.00    69.86     0  00:00        0.00
  S369MNH0219XX        JUNCTION  -nan(ind)     0.00    67.50     0  00:00        0.00
  S370MNH0206XX        JUNCTION  -nan(ind)     0.00    57.90     0  00:00        0.00
  S370MNH0207XX        JUNCTION  -nan(ind)     0.00    57.10     0  00:00        0.00
  S370MNH0208XX        JUNCTION  -nan(ind)     0.00    58.90     0  00:00        0.00
  S371MNH0201XX        JUNCTION  -nan(ind)     0.00    56.52     0  00:00        0.00
  S371MNH0202XX        JUNCTION  -nan(ind)     0.00    56.90     0  00:00        0.00
  S371MNH0203XX        JUNCTION  -nan(ind)     0.00    57.40     0  00:00        0.00
  S371MNH0204XX        JUNCTION  -nan(ind)     0.00    58.32     0  00:00        0.00
  S371MNH0205XX        JUNCTION  -nan(ind)     0.00    60.80     0  00:00        0.00
  S371MNH0206XX        JUNCTION  -nan(ind)     0.00    59.63     0  00:00        0.00
  S371MNH0207XX        JUNCTION  -nan(ind)     0.00    59.79     0  00:00        0.00
  S371MNH0209XX        JUNCTION  -nan(ind)     0.00    59.80     0  00:00        0.00
  S371MNH0210XX        JUNCTION  -nan(ind)     0.00    63.33     0  00:00        0.00
  S371MNH0211XX        JUNCTION  -nan(ind)     0.00    61.86     0  00:00        0.00
  S372MNH0212XX        JUNCTION  -nan(ind)     0.00    38.32     0  00:00        0.00
  S372MNH0215XX        JUNCTION  -nan(ind)     0.00    38.88     0  00:00        0.00
  S373MNH0205XX        JUNCTION  -nan(ind)     0.00    40.61     0  00:00        0.00
  S373MNH0209XX        JUNCTION  -nan(ind)     0.00    47.25     0  00:00        0.00
  S373MNH0210XX        JUNCTION  -nan(ind)     0.00    43.00     0  00:00        0.00
  S373MNH0211XX        JUNCTION  -nan(ind)     0.00    45.78     0  00:00        0.00
  S373MNH0212XX        JUNCTION  -nan(ind)     0.00    45.52     0  00:00        0.00
  S374MNH0203XX        JUNCTION  -nan(ind)     0.00    41.42     0  00:00        0.00
  S374MNH0204XX        JUNCTION  -nan(ind)     0.00    40.20     0  00:00        0.00
  S374MNH0205XX        JUNCTION  -nan(ind)     0.00    39.59     0  00:00        0.00
  S374MNH0206XX        JUNCTION  -nan(ind)     0.00    38.34     0  00:00        0.00
  S375MNH0201XX        JUNCTION  -nan(ind)     0.00    37.39     0  00:00        0.00
  S375MNH0202XX        JUNCTION  -nan(ind)     0.00    35.87     0  00:00        0.00
  S375MNH0203XX        JUNCTION  -nan(ind)     0.00    32.79     0  00:00        0.00
  S375MNH0204XX        JUNCTION  -nan(ind)     0.00    34.94     0  00:00        0.00
  S375MNH0210XX        JUNCTION  -nan(ind)     0.00    33.44     0  00:00        0.00
  S375MNH0211XX        JUNCTION  -nan(ind)     0.00    32.03     0  00:00        0.00
  S375MNH0212XX        JUNCTION  -nan(ind)     0.00    35.80     0  00:00        0.00
  S376MNH0202XX        JUNCTION  -nan(ind)     0.00    28.15     0  00:00        0.00
  S376MNH0203XX        JUNCTION  -nan(ind)     0.00    29.12     0  00:00        0.00
  S376MNH0208XX        JUNCTION  -nan(ind)     0.00    30.79     0  00:00        0.00
  S376MNH0209XX        JUNCTION  -nan(ind)     0.00    30.80     0  00:00        0.00
  S376MNH0210XX        JUNCTION  -nan(ind)     0.00    32.58     0  00:00        0.00
  S376MNH0211XX        JUNCTION  -nan(ind)     0.00    31.93     0  00:00        0.00
  S376VLV0201XX        JUNCTION  -nan(ind)     0.00    37.85     0  00:00        0.00
  S377MNH0201XX        JUNCTION  -nan(ind)     0.00    26.71     0  00:00        0.00
  S377MNH0202XX        JUNCTION  -nan(ind)     0.00    30.75     0  00:00        0.00
  S377MNH0203XX        JUNCTION  -nan(ind)     0.00    25.74     0  00:00        0.00
  S377MNH0204XX        JUNCTION  -nan(ind)     0.00    29.82     0  00:00        0.00
  S377MNH0205XX        JUNCTION  -nan(ind)     0.00    28.76     0  00:00        0.00
  S377MNH0206XX        JUNCTION  -nan(ind)     0.00    27.80     0  00:00        0.00
  S377MNH0207XX        JUNCTION  -nan(ind)     0.00    27.49     0  00:00        0.00
  S377MNH0209XX        JUNCTION  -nan(ind)     0.00    30.05     0  00:00        0.00
  S378MNH0201XX        JUNCTION  -nan(ind)     0.00    24.58     0  00:00        0.00
  S378MNH0202XX        JUNCTION  -nan(ind)     0.00    26.34     0  00:00        0.00
  S378MNH0203XX        JUNCTION  -nan(ind)     0.00    28.24     0  00:00        0.00
  S378MNH0204XX        JUNCTION  -nan(ind)     0.00    28.52     0  00:00        0.00
  S378MNH0205XX        JUNCTION  -nan(ind)     0.00    23.90     0  00:00        0.00
  S378MNH0206XX        JUNCTION  -nan(ind)     0.00    25.30     0  00:00        0.00
  S383MNH0201XX        JUNCTION  -nan(ind)     0.00    21.29     0  00:00        0.00
  S383MNH0202XX        JUNCTION  -nan(ind)     0.00    21.85     0  00:00        0.00
  S383MNH0203XX        JUNCTION  -nan(ind)     0.00    22.60     0  00:00        0.00
  S383MNH0204XX        JUNCTION  -nan(ind)     0.00    23.21     0  00:00        0.00
  S384MNH0201XX        JUNCTION  -nan(ind)     0.00    21.18     0  00:00        0.00
  S384MNH0202XX        JUNCTION  -nan(ind)     0.00    24.52     0  00:00        0.00
  S384MNH0204XX        JUNCTION  -nan(ind)     0.00    23.72     0  00:00        0.00
  S384MNH0205XX        JUNCTION  -nan(ind)     0.00    23.30     0  00:00        0.00
  S384MNH0206XX        JUNCTION  -nan(ind)     0.00    22.76     0  00:00        0.00
  S384MNH0207XX        JUNCTION  -nan(ind)     0.00    22.26     0  00:00        0.00
  S385MNH0203XX        JUNCTION  -nan(ind)     0.00    27.31     0  00:00        0.00
  S385MNH0204XX        JUNCTION  -nan(ind)     0.00    24.92     0  00:00        0.00
  S385MNH0205XX        JUNCTION  -nan(ind)     0.00    21.93     0  00:00        0.00
  S385MNH0206XX        JUNCTION  -nan(ind)     0.00    25.11     0  00:00        0.00
  S385MNH0207XX        JUNCTION  -nan(ind)     0.00    23.65     0  00:00        0.00
  S385MNH0208XX        JUNCTION  -nan(ind)     0.00    26.78     0  00:00        0.00
  S385MNH0209XX        JUNCTION  -nan(ind)     0.00    28.39     0  00:00        0.00
  S386MNH0201XX        JUNCTION  -nan(ind)     0.00    28.51     0  00:00        0.00
  S386MNH0202XX        JUNCTION  -nan(ind)     0.00    34.31     0  00:00        0.00
  S386MNH0203XX        JUNCTION  -nan(ind)     0.00    33.51     0  00:00        0.00
  S386MNH0204XX        JUNCTION  -nan(ind)     0.00    32.69     0  00:00        0.00
  S386MNH0205XX        JUNCTION  -nan(ind)     0.00    31.92     0  00:00        0.00
  S386MNH0207XX        JUNCTION  -nan(ind)     0.00    30.50     0  00:00        0.00
  S386MNH0208XX        JUNCTION  -nan(ind)     0.00    29.76     0  00:00        0.00
  S386MNH0209XX        JUNCTION  -nan(ind)     0.00    31.27     0  00:00        0.00
  S387MNH0201XX        JUNCTION  -nan(ind)     0.00    35.10     0  00:00        0.00
  S387MNH0206XX        JUNCTION  -nan(ind)     0.00    32.86     0  00:00        0.00
  S387MNH0207XX        JUNCTION  -nan(ind)     0.00    33.67     0  00:00        0.00
  S387MNH0208XX        JUNCTION  -nan(ind)     0.00    34.47     0  00:00        0.00
  S387MNH0209XX        JUNCTION  -nan(ind)     0.00    35.90     0  00:00        0.00
  S388MNH0201XX        JUNCTION  -nan(ind)     0.00    34.72     0  00:00        0.00
  S388MNH0202XX        JUNCTION  -nan(ind)     0.00    34.02     0  00:00        0.00
  S388MNH0203XX        JUNCTION  -nan(ind)     0.00    33.68     0  00:00        0.00
  S388MNH0204XX        JUNCTION  -nan(ind)     0.00    32.65     0  00:00        0.00
  S388MNH0207XX        JUNCTION  -nan(ind)     0.00    31.97     0  00:00        0.00
  S388MNH0208XX        JUNCTION  -nan(ind)     0.00    31.90     0  00:00        0.00
  S388MNH0209XX        JUNCTION  -nan(ind)     0.00    32.80     0  00:00        0.00
  S388MNH0210XX        JUNCTION  -nan(ind)     0.00    36.70     0  00:00        0.00
  S389MNH0207XX        JUNCTION  -nan(ind)     0.00    35.75     0  00:00        0.00
  S389MNH0209XX        JUNCTION  -nan(ind)     0.00    36.77     0  00:00        0.00
  S389MNH0210XX        JUNCTION  -nan(ind)     0.00    37.80     0  00:00        0.00
  S389MNH0211XX        JUNCTION  -nan(ind)     0.00    38.00     0  00:00        0.00
  S390MNH0206XX        JUNCTION  -nan(ind)     0.00    50.34     0  00:00        0.00
  S390MNH0207XX        JUNCTION  -nan(ind)     0.00    54.46     0  00:00        0.00
  S391MNH0204XX        JUNCTION  -nan(ind)     0.00    53.70     0  00:00        0.00
  S391MNH0206XX        JUNCTION  -nan(ind)     0.00    54.58     0  00:00        0.00
  S391MNH0208XX        JUNCTION  -nan(ind)     0.00    55.60     0  00:00        0.00
  S391MNH0210XX        JUNCTION  -nan(ind)     0.00    56.00     0  00:00        0.00
  S391MNH0211XX        JUNCTION  -nan(ind)     0.00    55.63     0  00:00        0.00
  S391MNH0215XX        JUNCTION  -nan(ind)     0.00    44.00     0  00:00        0.00
  S391MNH0217XX        JUNCTION  -nan(ind)     0.00    56.20     0  00:00        0.00
  S391MNH0219XX        JUNCTION  -nan(ind)     0.00    56.30     0  00:00        0.00
  S392MNH0201XX        JUNCTION  -nan(ind)     0.00    50.92     0  00:00        0.00
  S392MNH0203XX        JUNCTION  -nan(ind)     0.00    51.90     0  00:00        0.00
  S392MNH0204XX        JUNCTION  -nan(ind)     0.00    58.70     0  00:00        0.00
  S392MNH0205XX        JUNCTION  -nan(ind)     0.00    60.10     0  00:00        0.00
  S392MNH0206XX        JUNCTION  -nan(ind)     0.00    61.00     0  00:00        0.00
  S392MNH0207XX        JUNCTION  -nan(ind)     0.00    61.50     0  00:00        0.00
  S392MNH0208XX        JUNCTION  -nan(ind)     0.00    63.90     0  00:00        0.00
  S392MNH0211XX        JUNCTION  -nan(ind)     0.00    52.90     0  00:00        0.00
  S393MNH0207XX        JUNCTION  -nan(ind)     0.00    71.22     0  00:00        0.00
  S393MNH0209XX        JUNCTION  -nan(ind)     0.00    70.34     0  00:00        0.00
  S393MNH0211XX        JUNCTION  -nan(ind)     0.00    72.31     0  00:00        0.00
  S393MNH0212XX        JUNCTION  -nan(ind)     0.00    67.79     0  00:00        0.00
  S393MNH0213XX        JUNCTION  -nan(ind)     0.00    65.70     0  00:00        0.00
  S393MNH0214XX        JUNCTION  -nan(ind)     0.00    65.30     0  00:00        0.00
  S393MNH0216XX        JUNCTION  -nan(ind)     0.00    63.37     0  00:00        0.00
  S393MNH0226XX        JUNCTION  -nan(ind)     0.00    71.91     0  00:00        0.00
  S393MNH0227XX        JUNCTION  -nan(ind)     0.00    71.37     0  00:00        0.00
  S394MNH0201XX        JUNCTION  -nan(ind)     0.00    73.50     0  00:00        0.00
  S394MNH0202XX        JUNCTION  -nan(ind)     0.00    77.47     0  00:00        0.00
  S394MNH0204XX        JUNCTION  -nan(ind)     0.00    73.20     0  00:00        0.00
  S394MNH0230XX        JUNCTION  -nan(ind)     0.00    76.62     0  00:00        0.00
  S394MNH0232XX        JUNCTION  -nan(ind)     0.00    76.30     0  00:00        0.00
  S394MNH0233XX        JUNCTION  -nan(ind)     0.00    76.20     0  00:00        0.00
  S394MNH0234XX        JUNCTION  -nan(ind)     0.00    74.80     0  00:00        0.00
  S395MNH0201XX        JUNCTION  -nan(ind)     0.00    78.32     0  00:00        0.00
  S395MNH0202XX        JUNCTION  -nan(ind)     0.00    80.10     0  00:00        0.00
  S395MNH0203XX        JUNCTION  -nan(ind)     0.00    79.50     0  00:00        0.00
  S395MNH0204XX        JUNCTION  -nan(ind)     0.00    79.37     0  00:00        0.00
  S395MNH0205XX        JUNCTION  -nan(ind)     0.00    79.17     0  00:00        0.00
  S396MNH0201XX        JUNCTION  -nan(ind)     0.00    83.60     0  00:00        0.00
  S396MNH0202XX        JUNCTION  -nan(ind)     0.00    84.65     0  00:00        0.00
  S396MNH0203XX        JUNCTION  -nan(ind)     0.00    83.57     0  00:00        0.00
  S396MNH0204XX        JUNCTION  -nan(ind)     0.00    82.64     0  00:00        0.00
  S396MNH0205XX        JUNCTION  -nan(ind)     0.00    83.80     0  00:00        0.00
  S396MNH0206XX        JUNCTION  -nan(ind)     0.00    86.81     0  00:00        0.00
  S396MNH0207XX        JUNCTION  -nan(ind)     0.00    88.27     0  00:00        0.00
  S396MNH0208XX        JUNCTION  -nan(ind)     0.00    88.41     0  00:00        0.00
  S396MNH0209XX        JUNCTION  -nan(ind)     0.00    88.83     0  00:00        0.00
  S396MNH0210XX        JUNCTION  -nan(ind)     0.00    88.86     0  00:00        0.00
  S396MNH0214XX        JUNCTION  -nan(ind)     0.00    89.03     0  00:00        0.00
  S396MNH0215XX        JUNCTION  -nan(ind)     0.00    89.49     0  00:00        0.00
  S396MNH0216XX        JUNCTION  -nan(ind)     0.00    90.04     0  00:00        0.00
  S396MNH0217XX        JUNCTION  -nan(ind)     0.00    92.08     0  00:00        0.00
  S396MNH0225XX        JUNCTION  -nan(ind)     0.00    82.24     0  00:00        0.00
  S398MNH0216XX        JUNCTION  -nan(ind)     0.00   101.65     0  00:00        0.00
  S398MNH0217XX        JUNCTION  -nan(ind)     0.00   100.94     0  00:00        0.00
  S398MNH0218XX        JUNCTION  -nan(ind)     0.00    97.61     0  00:00        0.00
  S398MNH0219XX        JUNCTION  -nan(ind)     0.00    96.41     0  00:00        0.00
  S398MNH0220XX        JUNCTION  -nan(ind)     0.00    95.10     0  00:00        0.00
  S398MNH0224XX        JUNCTION  -nan(ind)     0.00    93.36     0  00:00        0.00
  S403MNH0207XX        JUNCTION  -nan(ind)     0.00    93.19     0  00:00        0.00
  S404MNH0201XX        JUNCTION  -nan(ind)     0.00    89.41     0  00:00        0.00
  S404MNH0202XX        JUNCTION  -nan(ind)     0.00    90.83     0  00:00        0.00
  S404MNH0203XX        JUNCTION  -nan(ind)     0.00    90.11     0  00:00        0.00
  S404MNH0204XX        JUNCTION  -nan(ind)     0.00    89.74     0  00:00        0.00
  S404MNH0208XX        JUNCTION  -nan(ind)     0.00    92.18     0  00:00        0.00
  S404MNH0209XX        JUNCTION  -nan(ind)     0.00    92.07     0  00:00        0.00
  S404MNH0210XX        JUNCTION  -nan(ind)     0.00    91.68     0  00:00        0.00
  S404MNH0211XX        JUNCTION  -nan(ind)     0.00    91.12     0  00:00        0.00
  S405MNH0205XX        JUNCTION  -nan(ind)     0.00    82.10     0  00:00        0.00
  S405MNH0206XX        JUNCTION  -nan(ind)     0.00    82.00     0  00:00        0.00
  S405MNH0214XX        JUNCTION  -nan(ind)     0.00    89.30     0  00:00        0.00
  S405MNH0215XX        JUNCTION  -nan(ind)     0.00    82.19     0  00:00        0.00
  S405MNH0216XX        JUNCTION  -nan(ind)     0.00    82.10     0  00:00        0.00
  S406MNH0207XX        JUNCTION  -nan(ind)     0.00    81.77     0  00:00        0.00
  S406MNH0208XX        JUNCTION  -nan(ind)     0.00    80.96     0  00:00        0.00
  S406MNH0209XX        JUNCTION  -nan(ind)     0.00    67.87     0  00:00        0.00
  S406MNH0210XX        JUNCTION  -nan(ind)     0.00    67.37     0  00:00        0.00
  S406MNH0243XX        JUNCTION  -nan(ind)     0.00    67.98     0  00:00        0.00
  S407MNH0201XX        JUNCTION  -nan(ind)     0.00    66.16     0  00:00        0.00
  S407MNH0202XX        JUNCTION  -nan(ind)     0.00    66.33     0  00:00        0.00
  S407MNH0203XX        JUNCTION  -nan(ind)     0.00    66.57     0  00:00        0.00
  S407MNH0204XX        JUNCTION  -nan(ind)     0.00    64.32     0  00:00        0.00
  S407MNH0206XX        JUNCTION  -nan(ind)     0.00    62.98     0  00:00        0.00
  S407MNH0213XX        JUNCTION  -nan(ind)     0.00    64.87     0  00:00        0.00
  S408MNH0201XX        JUNCTION  -nan(ind)     0.00    54.32     0  00:00        0.00
  S408MNH0202XX        JUNCTION  -nan(ind)     0.00    55.97     0  00:00        0.00
  S408MNH0203XX        JUNCTION  -nan(ind)     0.00    56.00     0  00:00        0.00
  S408MNH0204XX        JUNCTION  -nan(ind)     0.00    57.03     0  00:00        0.00
  S408MNH0205XX        JUNCTION  -nan(ind)     0.00    62.84     0  00:00        0.00
  S408MNH0206XX        JUNCTION  -nan(ind)     0.00    62.32     0  00:00        0.00
  S408MNH0209XX        JUNCTION  -nan(ind)     0.00    60.20     0  00:00        0.00
  S408MNH0211XX        JUNCTION  -nan(ind)     0.00    53.34     0  00:00        0.00
  S408MNH0229XX        JUNCTION  -nan(ind)     0.00    55.10     0  00:00        0.00
  S408MNH0230XX        JUNCTION  -nan(ind)     0.00    57.80     0  00:00        0.00
  S408MNH0231XX        JUNCTION  -nan(ind)     0.00    57.50     0  00:00        0.00
  S409MNH0214XX        JUNCTION  -nan(ind)     0.00    49.00     0  00:00        0.00
  S409MNH0216XX        JUNCTION  -nan(ind)     0.00    47.30     0  00:00        0.00
  S409MNH0218XX        JUNCTION  -nan(ind)     0.00    45.40     0  00:00        0.00
  S409MNH0220XX        JUNCTION  -nan(ind)     0.00    50.20     0  00:00        0.00
  S409MNH0221XX        JUNCTION  -nan(ind)     0.00    53.00     0  00:00        0.00
  S410MNH0206XX        JUNCTION  -nan(ind)     0.00    43.07     0  00:00        0.00
  S410MNH0208XX        JUNCTION  -nan(ind)     0.00    48.30     0  00:00        0.00
  S410MNH0210XX        JUNCTION  -nan(ind)     0.00    42.39     0  00:00        0.00
  S411MNH0201XX        JUNCTION  -nan(ind)     0.00    43.88     0  00:00        0.00
  S411MNH0205XX        JUNCTION  -nan(ind)     0.00    48.27     0  00:00        0.00
  S411MNH0207XX        JUNCTION  -nan(ind)     0.00    46.02     0  00:00        0.00
  S411MNH0209XX        JUNCTION  -nan(ind)     0.00    44.96     0  00:00        0.00
  S411MNH0215XX        JUNCTION  -nan(ind)     0.00    37.35     0  00:00        0.00
  S411MNH0217XX        JUNCTION  -nan(ind)     0.00    37.35     0  00:00        0.00
  S412MNH0201XX        JUNCTION  -nan(ind)     0.00    34.15     0  00:00        0.00
  S412MNH0202XX        JUNCTION  -nan(ind)     0.00    35.15     0  00:00        0.00
  S413MNH0202XX        JUNCTION  -nan(ind)     0.00    31.48     0  00:00        0.00
  S413MNH0203XX        JUNCTION  -nan(ind)     0.00    30.34     0  00:00        0.00
  S413MNH0204XX        JUNCTION  -nan(ind)     0.00    32.62     0  00:00        0.00
  S414MNH0201XX        JUNCTION  -nan(ind)     0.00    23.60     0  00:00        0.00
  S414MNH0202XX        JUNCTION  -nan(ind)     0.00    25.20     0  00:00        0.00
  S414MNH0203XX        JUNCTION  -nan(ind)     0.00    26.00     0  00:00        0.00
  S414MNH0204XX        JUNCTION  -nan(ind)     0.00    27.60     0  00:00        0.00
  S414MNH0205XX        JUNCTION  -nan(ind)     0.00    29.30     0  00:00        0.00
  S415MNH0201XX        JUNCTION  -nan(ind)     0.00    31.26     0  00:00        0.00
  S416MNH0201XX        JUNCTION  -nan(ind)     0.00    28.18     0  00:00        0.00
  S416MNH0202XX        JUNCTION  -nan(ind)     0.00    29.26     0  00:00        0.00
  S416MNH0203XX        JUNCTION  -nan(ind)     0.00    29.46     0  00:00        0.00
  S416MNH0204XX        JUNCTION  -nan(ind)     0.00    29.89     0  00:00        0.00
  S416MNH0205XX        JUNCTION  -nan(ind)     0.00    30.59     0  00:00        0.00
  S416MNH0206XX        JUNCTION  -nan(ind)     0.00    21.20     0  00:00        0.00
  S416MNH0207XX        JUNCTION  -nan(ind)     0.00    16.74     0  00:00        0.00
  S416MNH0208XX        JUNCTION  -nan(ind)     0.00    15.55     0  00:00        0.00
  S416MNH0209XX        JUNCTION  -nan(ind)     0.00    26.33     0  00:00        0.00
  S416MNH0210XX        JUNCTION  -nan(ind)     0.00    25.74     0  00:00        0.00
  S416MNH0211XX        JUNCTION  -nan(ind)     0.00    16.18     0  00:00        0.00
  S417MNH0201XX        JUNCTION  -nan(ind)     0.00    16.79     0  00:00        0.00
  S417MNH0202XX        JUNCTION  -nan(ind)     0.00    17.56     0  00:00        0.00
  S417MNH0203XX        JUNCTION  -nan(ind)     0.00    19.96     0  00:00        0.00
  S417MNH0204XX        JUNCTION  -nan(ind)     0.00    20.62     0  00:00        0.00
  S417MNH0205XX        JUNCTION  -nan(ind)     0.00    20.65     0  00:00        0.00
  S417MNH0206XX        JUNCTION  -nan(ind)     0.00    21.25     0  00:00        0.00
  S417MNH0208XX        JUNCTION  -nan(ind)     0.00    17.26     0  00:00        0.00
  S417MNH0209XX        JUNCTION  -nan(ind)     0.00    17.73     0  00:00        0.00
  S417MNH0210XX        JUNCTION  -nan(ind)     0.00    18.14     0  00:00        0.00
  S417MNH0211XX        JUNCTION  -nan(ind)     0.00    18.65     0  00:00        0.00
  S417MNH0212XX        JUNCTION  -nan(ind)     0.00    19.09     0  00:00        0.00
  S417MNH0214XX        JUNCTION  -nan(ind)     0.00    21.82     0  00:00        0.00
  S418MNH0201XX        JUNCTION  -nan(ind)     0.00    19.76     0  00:00        0.00
  S418MNH0202XX        JUNCTION  -nan(ind)     0.00    21.40     0  00:00        0.00
  S418MNH0203XX        JUNCTION  -nan(ind)     0.00    20.20     0  00:00        0.00
  S418MNH0204XX        JUNCTION  -nan(ind)     0.00    20.42     0  00:00        0.00
  S418MNH0206XX        JUNCTION  -nan(ind)     0.00    20.86     0  00:00        0.00
  S423MNH0205XX        JUNCTION  -nan(ind)     0.00    19.90     0  00:00        0.00
  S423MNH0206XX        JUNCTION  -nan(ind)     0.00    20.70     0  00:00        0.00
  S424MNH0201XX        JUNCTION  -nan(ind)     0.00    18.62     0  00:00        0.00
  S424MNH0202XX        JUNCTION  -nan(ind)     0.00    18.01     0  00:00        0.00
  S424MNH0203XX        JUNCTION  -nan(ind)     0.00    17.38     0  00:00        0.00
  S424MNH0205XX        JUNCTION  -nan(ind)     0.00    18.47     0  00:00        0.00
  S424MNH0206XX        JUNCTION  -nan(ind)     0.00    17.71     0  00:00        0.00
  S424MNH0214XX        JUNCTION  -nan(ind)     0.00    16.72     0  00:00        0.00
  S424MNH0215XX        JUNCTION  -nan(ind)     0.00    17.85     0  00:00        0.00
  S424MNH0216XX        JUNCTION  -nan(ind)     0.00    19.27     0  00:00        0.00
  S425MNH0205XX        JUNCTION  -nan(ind)     0.00    17.60     0  00:00        0.00
  S425MNH0206XX        JUNCTION  -nan(ind)     0.00    15.52     0  00:00        0.00
  S425MNH0209XX        JUNCTION  -nan(ind)     0.00    15.36     0  00:00        0.00
  S425MNH0210XX        JUNCTION  -nan(ind)     0.00    14.42     0  00:00        0.00
  S425MNH0211XX        JUNCTION  -nan(ind)     0.00    13.23     0  00:00        0.00
  S425MNH0212XX        JUNCTION  -nan(ind)     0.00    15.02     0  00:00        0.00
  S425MNH0214XX        JUNCTION  -nan(ind)     0.00    16.06     0  00:00        0.00
  S425MNH0215XX        JUNCTION  -nan(ind)     0.00    11.23     0  00:00        0.00
  S426MNH0208XX        JUNCTION  -nan(ind)     0.00    18.46     0  00:00        0.00
  S426MNH0209XX        JUNCTION  -nan(ind)     0.00    18.46     0  00:00        0.00
  S426MNH0211XX        JUNCTION  -nan(ind)     0.00    25.10     0  00:00        0.00
  S426MNH0213XX        JUNCTION  -nan(ind)     0.00    20.74     0  00:00        0.00
  S426MNH0214XX        JUNCTION  -nan(ind)     0.00    20.41     0  00:00        0.00
  S426MNH0215XX        JUNCTION  -nan(ind)     0.00    20.94     0  00:00        0.00
  S426MNH0216XX        JUNCTION  -nan(ind)     0.00    21.48     0  00:00        0.00
  S426MNH0219XX        JUNCTION  -nan(ind)     0.00    22.22     0  00:00        0.00
  S426MNH0220XX        JUNCTION  -nan(ind)     0.00    21.30     0  00:00        0.00
  S426MNH0221XX        JUNCTION  -nan(ind)     0.00    17.70     0  00:00        0.00
  S426MNH0222XX        JUNCTION  -nan(ind)     0.00    27.40     0  00:00        0.00
  S427MNH0203XX        JUNCTION  -nan(ind)     0.00    25.17     0  00:00        0.00
  S427MNH0208XX        JUNCTION  -nan(ind)     0.00    23.70     0  00:00        0.00
  S427MNH0209XX        JUNCTION  -nan(ind)     0.00    22.00     0  00:00        0.00
  S427MNH0212XX        JUNCTION  -nan(ind)     0.00    24.77     0  00:00        0.00
  S427MNH0214XX        JUNCTION  -nan(ind)     0.00    23.52     0  00:00        0.00
  S427MNH0216XX        JUNCTION  -nan(ind)     0.00    21.49     0  00:00        0.00
  S427MNH0218XX        JUNCTION  -nan(ind)     0.00    24.44     0  00:00        0.00
  S427MNH0220XX        JUNCTION  -nan(ind)     0.00    22.96     0  00:00        0.00
  S427MNH0221XX        JUNCTION  -nan(ind)     0.00    25.86     0  00:00        0.00
  S427MNH0222XX        JUNCTION  -nan(ind)     0.00    23.62     0  00:00        0.00
  S428MNH0212XX        JUNCTION  -nan(ind)     0.00    28.07     0  00:00        0.00
  S428MNH0213XX        JUNCTION  -nan(ind)     0.00    29.20     0  00:00        0.00
  S428MNH0215XX        JUNCTION  -nan(ind)     0.00    26.98     0  00:00        0.00
  S428MNH0216XX        JUNCTION  -nan(ind)     0.00    27.05     0  00:00        0.00
  S429MNH0201XX        JUNCTION  -nan(ind)     0.00    30.29     0  00:00        0.00
  S429MNH0204XX        JUNCTION  -nan(ind)     0.00    31.05     0  00:00        0.00
  S429MNH0206XX        JUNCTION  -nan(ind)     0.00    32.75     0  00:00        0.00
  S429MNH0222XX        JUNCTION  -nan(ind)     0.00    29.41     0  00:00        0.00
  S431MNH0207XX        JUNCTION  -nan(ind)     0.00    40.46     0  00:00        0.00
  S431MNH0209XX        JUNCTION  -nan(ind)     0.00    41.21     0  00:00        0.00
  S431MNH0214XX        JUNCTION  -nan(ind)     0.00    38.50     0  00:00        0.00
  S431MNH0225XX        JUNCTION  -nan(ind)     0.00    43.40     0  00:00        0.00
  S431MNH0226XX        JUNCTION  -nan(ind)     0.00    40.94     0  00:00        0.00
  S432MNH0202XX        JUNCTION  -nan(ind)     0.00    45.60     0  00:00        0.00
  S432MNH0204XX        JUNCTION  -nan(ind)     0.00    45.00     0  00:00        0.00
  S432MNH0205XX        JUNCTION  -nan(ind)     0.00    44.90     0  00:00        0.00
  S432MNH0212XX        JUNCTION  -nan(ind)     0.00    39.80     0  00:00        0.00
  S432MNH0213XX        JUNCTION  -nan(ind)     0.00    44.10     0  00:00        0.00
  S432MNH0217XX        JUNCTION  -nan(ind)     0.00    43.50     0  00:00        0.00
  S432MNH0218XX        JUNCTION  -nan(ind)     0.00    41.08     0  00:00        0.00
  S432MNH0219XX        JUNCTION  -nan(ind)     0.00    40.68     0  00:00        0.00
  S432MNH0220XX        JUNCTION  -nan(ind)     0.00    42.89     0  00:00        0.00
  S432MNH0224XX        JUNCTION  -nan(ind)     0.00    42.60     0  00:00        0.00
  S432MNH0226XX        JUNCTION  -nan(ind)     0.00    43.60     0  00:00        0.00
  S432MNH0227XX        JUNCTION  -nan(ind)     0.00    38.67     0  00:00        0.00
  S432MNH0228XX        JUNCTION  -nan(ind)     0.00    39.99     0  00:00        0.00
  S432MNH0229XX        JUNCTION  -nan(ind)     0.00    38.90     0  00:00        0.00
  S432MNH0230XX        JUNCTION  -nan(ind)     0.00    41.56     0  00:00        0.00
  S432MNH0231XX        JUNCTION  -nan(ind)     0.00    41.72     0  00:00        0.00
  S432MNH0232XX        JUNCTION  -nan(ind)     0.00    39.68     0  00:00        0.00
  S432MNH0235XX        JUNCTION  -nan(ind)     0.00    41.46     0  00:00        0.00
  S433MNH0201XX        JUNCTION  -nan(ind)     0.00    38.30     0  00:00        0.00
  S433MNH0202XX        JUNCTION  -nan(ind)     0.00    52.93     0  00:00        0.00
  S433MNH0203XX        JUNCTION  -nan(ind)     0.00    50.53     0  00:00        0.00
  S433MNH0204XX        JUNCTION  -nan(ind)     0.00    49.30     0  00:00        0.00
  S433MNH0206XX        JUNCTION  -nan(ind)     0.00    51.10     0  00:00        0.00
  S433MNH0207XX        JUNCTION  -nan(ind)     0.00    51.12     0  00:00        0.00
  S433MNH0208XX        JUNCTION  -nan(ind)     0.00    52.00     0  00:00        0.00
  S433MNH0210XX        JUNCTION  -nan(ind)     0.00    54.70     0  00:00        0.00
  S433MNH0211XX        JUNCTION  -nan(ind)     0.00    52.30     0  00:00        0.00
  S433MNH0212XX        JUNCTION  -nan(ind)     0.00    48.56     0  00:00        0.00
  S433MNH0213XX        JUNCTION  -nan(ind)     0.00    52.33     0  00:00        0.00
  S433MNH0214XX        JUNCTION  -nan(ind)     0.00    54.84     0  00:00        0.00
  S433MNH0224XX        JUNCTION  -nan(ind)     0.00    46.57     0  00:00        0.00
  S433MNH0225XX        JUNCTION  -nan(ind)     0.00    51.56     0  00:00        0.00
  S433MNH0226XX        JUNCTION  -nan(ind)     0.00    52.97     0  00:00        0.00
  S433MNH0227XX        JUNCTION  -nan(ind)     0.00    52.87     0  00:00        0.00
  S433MNH0228XX        JUNCTION  -nan(ind)     0.00    53.03     0  00:00        0.00
  S433MNH0229XX        JUNCTION  -nan(ind)     0.00    49.28     0  00:00        0.00
  S433MNH0230XX        JUNCTION  -nan(ind)     0.00    48.36     0  00:00        0.00
  S433MNH0231XX        JUNCTION  -nan(ind)     0.00    37.94     0  00:00        0.00
  S434MNH0201XX        JUNCTION  -nan(ind)     0.00    66.71     0  00:00        0.00
[...]
  S6090205-6090202XX      1.00   -nan(ind)  -nan(ind)  -nan(ind)  -nan(ind)  -nan(ind)  -nan(ind)  -nan(ind)  -nan(ind)  -nan(ind)
  S6100203-6100205XX      1.00   -nan(ind)  -nan(ind)  -nan(ind)  -nan(ind)  -nan(ind)  -nan(ind)  -nan(ind)  -nan(ind)  -nan(ind)
  S6100205-6100209XX      1.00   -nan(ind)  -nan(ind)  -nan(ind)  -nan(ind)  -nan(ind)  -nan(ind)  -nan(ind)  -nan(ind)  -nan(ind)
  S6100205-6310203XX      1.00   -nan(ind)  -nan(ind)  -nan(ind)  -nan(ind)  -nan(ind)  -nan(ind)  -nan(ind)  -nan(ind)  -nan(ind)
  S6100206-6310206XX      1.00   -nan(ind)  -nan(ind)  -nan(ind)  -nan(ind)  -nan(ind)  -nan(ind)  -nan(ind)  -nan(ind)  -nan(ind)
  S6100207-6110201XX      1.00   -nan(ind)  -nan(ind)  -nan(ind)  -nan(ind)  -nan(ind)  -nan(ind)  -nan(ind)  -nan(ind)  -nan(ind)
  S6100208-6100207XX      1.00   -nan(ind)  -nan(ind)  -nan(ind)  -nan(ind)  -nan(ind)  -nan(ind)  -nan(ind)  -nan(ind)  -nan(ind)
  S6100209-6100210XX      1.00   -nan(ind)  -nan(ind)  -nan(ind)  -nan(ind)  -nan(ind)  -nan(ind)  -nan(ind)  -nan(ind)  -nan(ind)
  S6100210-6100207XX      1.00   -nan(ind)  -nan(ind)  -nan(ind)  -nan(ind)  -nan(ind)  -nan(ind)  -nan(ind)  -nan(ind)  -nan(ind)
  S6110116-6300213XX      1.00   -nan(ind)  -nan(ind)  -nan(ind)  -nan(ind)  -nan(ind)  -nan(ind)  -nan(ind)  -nan(ind)  -nan(ind)
  S6110201-6110202XX      1.00   -nan(ind)  -nan(ind)  -nan(ind)  -nan(ind)  -nan(ind)  -nan(ind)  -nan(ind)  -nan(ind)  -nan(ind)
  S6110202-6110203XX      1.00   -nan(ind)  -nan(ind)  -nan(ind)  -nan(ind)  -nan(ind)  -nan(ind)  -nan(ind)  -nan(ind)  -nan(ind)
  S6110203-5900219XX      1.00   -nan(ind)  -nan(ind)  -nan(ind)  -nan(ind)  -nan(ind)  -nan(ind)  -nan(ind)  -nan(ind)  -nan(ind)
  S6110205-6110206XX      1.00   -nan(ind)  -nan(ind)  -nan(ind)  -nan(ind)  -nan(ind)  -nan(ind)  -nan(ind)  -nan(ind)  -nan(ind)
  S6110206-6110208XX      1.00   -nan(ind)  -nan(ind)  -nan(ind)  -nan(ind)  -nan(ind)  -nan(ind)  -nan(ind)  -nan(ind)  -nan(ind)
  S6110207-6300205XX      1.00   -nan(ind)  -nan(ind)  -nan(ind)  -nan(ind)  -nan(ind)  -nan(ind)  -nan(ind)  -nan(ind)  -nan(ind)
  S6110208-6110207XX      1.00   -nan(ind)  -nan(ind)  -nan(ind)  -nan(ind)  -nan(ind)  -nan(ind)  -nan(ind)  -nan(ind)  -nan(ind)
  S6110209-6110210XX      1.00   -nan(ind)  -nan(ind)  -nan(ind)  -nan(ind)  -nan(ind)  -nan(ind)  -nan(ind)  -nan(ind)  -nan(ind)
  S6110210-6300209XX      1.00   -nan(ind)  -nan(ind)  -nan(ind)  -nan(ind)  -nan(ind)  -nan(ind)  -nan(ind)  -nan(ind)  -nan(ind)
  S6120201-6110210XX      1.00   -nan(ind)  -nan(ind)  -nan(ind)  -nan(ind)  -nan(ind)  -nan(ind)  -nan(ind)  -nan(ind)  -nan(ind)
  S6120202-6120201XX      1.00   -nan(ind)  -nan(ind)  -nan(ind)  -nan(ind)  -nan(ind)  -nan(ind)  -nan(ind)  -nan(ind)  -nan(ind)
  S6120203-6120202XX      1.00   -nan(ind)  -nan(ind)  -nan(ind)  -nan(ind)  -nan(ind)  -nan(ind)  -nan(ind)  -nan(ind)  -nan(ind)
  S6130201-6130203XX      1.00   -nan(ind)  -nan(ind)  -nan(ind)  -nan(ind)  -nan(ind)  -nan(ind)  -nan(ind)  -nan(ind)  -nan(ind)
  S6130202-6130201XX      1.00   -nan(ind)  -nan(ind)  -nan(ind)  -nan(ind)  -nan(ind)  -nan(ind)  -nan(ind)  -nan(ind)  -nan(ind)
  S6130203-6130208XX      1.00   -nan(ind)  -nan(ind)  -nan(ind)  -nan(ind)  -nan(ind)  -nan(ind)  -nan(ind)  -nan(ind)  -nan(ind)
  S6130204-6130203XX      1.00   -nan(ind)  -nan(ind)  -nan(ind)  -nan(ind)  -nan(ind)  -nan(ind)  -nan(ind)  -nan(ind)  -nan(ind)
  S6130208-6131001XX      3.58   -nan(ind)  -nan(ind)  -nan(ind)  -nan(ind)  -nan(ind)  -nan(ind)  -nan(ind)  -nan(ind)  -nan(ind)
  S6131001-6280207XX      1.00   -nan(ind)  -nan(ind)  -nan(ind)  -nan(ind)  -nan(ind)  -nan(ind)  -nan(ind)  -nan(ind)  -nan(ind)
  S6140201-6130204XX      1.00   -nan(ind)  -nan(ind)  -nan(ind)  -nan(ind)  -nan(ind)  -nan(ind)  -nan(ind)  -nan(ind)  -nan(ind)
  S6140202-6140201XX      1.00   -nan(ind)  -nan(ind)  -nan(ind)  -nan(ind)  -nan(ind)  -nan(ind)  -nan(ind)  -nan(ind)  -nan(ind)
  S6140203-6140202XX      1.00   -nan(ind)  -nan(ind)  -nan(ind)  -nan(ind)  -nan(ind)  -nan(ind)  -nan(ind)  -nan(ind)  -nan(ind)
  S6140204-5860209XX      1.00   -nan(ind)  -nan(ind)  -nan(ind)  -nan(ind)  -nan(ind)  -nan(ind)  -nan(ind)  -nan(ind)  -nan(ind)
  S6150201-6150202XX      1.00   -nan(ind)  -nan(ind)  -nan(ind)  -nan(ind)  -nan(ind)  -nan(ind)  -nan(ind)  -nan(ind)  -nan(ind)
  S6150202-6150210XX      1.00   -nan(ind)  -nan(ind)  -nan(ind)  -nan(ind)  -nan(ind)  -nan(ind)  -nan(ind)  -nan(ind)  -nan(ind)
  S6150203-6150204XX      1.00   -nan(ind)  -nan(ind)  -nan(ind)  -nan(ind)  -nan(ind)  -nan(ind)  -nan(ind)  -nan(ind)  -nan(ind)
  S6150204-6270202XX      1.00   -nan(ind)  -nan(ind)  -nan(ind)  -nan(ind)  -nan(ind)  -nan(ind)  -nan(ind)  -nan(ind)  -nan(ind)
  S6150206-6151001XX      1.60   -nan(ind)  -nan(ind)  -nan(ind)  -nan(ind)  -nan(ind)  -nan(ind)  -nan(ind)  -nan(ind)  -nan(ind)
  S6150207-6150210XX      1.00   -nan(ind)  -nan(ind)  -nan(ind)  -nan(ind)  -nan(ind)  -nan(ind)  -nan(ind)  -nan(ind)  -nan(ind)
  S6150208-6150207XX      1.00   -nan(ind)  -nan(ind)  -nan(ind)  -nan(ind)  -nan(ind)  -nan(ind)  -nan(ind)  -nan(ind)  -nan(ind)
  S6150210-6150203XX      1.00   -nan(ind)  -nan(ind)  -nan(ind)  -nan(ind)  -nan(ind)  -nan(ind)  -nan(ind)  -nan(ind)  -nan(ind)
  S6150211-6150206XX      1.00   -nan(ind)  -nan(ind)  -nan(ind)  -nan(ind)  -nan(ind)  -nan(ind)  -nan(ind)  -nan(ind)  -nan(ind)
  S6151001-6150204XX      1.00   -nan(ind)  -nan(ind)  -nan(ind)  -nan(ind)  -nan(ind)  -nan(ind)  -nan(ind)  -nan(ind)  -nan(ind)
  S6270201-6280206XX      1.00   -nan(ind)  -nan(ind)  -nan(ind)  -nan(ind)  -nan(ind)  -nan(ind)  -nan(ind)  -nan(ind)  -nan(ind)
  S6270202-6270201XX      1.00   -nan(ind)  -nan(ind)  -nan(ind)  -nan(ind)  -nan(ind)  -nan(ind)  -nan(ind)  -nan(ind)  -nan(ind)
  S6280201-6280209XX      1.00   -nan(ind)  -nan(ind)  -nan(ind)  -nan(ind)  -nan(ind)  -nan(ind)  -nan(ind)  -nan(ind)  -nan(ind)
  S6280205-6280201XX      1.00   -nan(ind)  -nan(ind)  -nan(ind)  -nan(ind)  -nan(ind)  -nan(ind)  -nan(ind)  -nan(ind)  -nan(ind)
  S6280206-6280209XX      1.00   -nan(ind)  -nan(ind)  -nan(ind)  -nan(ind)  -nan(ind)  -nan(ind)  -nan(ind)  -nan(ind)  -nan(ind)
  S6280207-6280206XX      1.76   -nan(ind)  -nan(ind)  -nan(ind)  -nan(ind)  -nan(ind)  -nan(ind)  -nan(ind)  -nan(ind)  -nan(ind)
  S6280209-6280210XX      1.41   -nan(ind)  -nan(ind)  -nan(ind)  -nan(ind)  -nan(ind)  -nan(ind)  -nan(ind)  -nan(ind)  -nan(ind)
  S6280210-6280211XX      2.14   -nan(ind)  -nan(ind)  -nan(ind)  -nan(ind)  -nan(ind)  -nan(ind)  -nan(ind)  -nan(ind)  -nan(ind)
  S6280211-6280212XX      1.00   -nan(ind)  -nan(ind)  -nan(ind)  -nan(ind)  -nan(ind)  -nan(ind)  -nan(ind)  -nan(ind)  -nan(ind)
  S6280212-6290213XX      1.00   -nan(ind)  -nan(ind)  -nan(ind)  -nan(ind)  -nan(ind)  -nan(ind)  -nan(ind)  -nan(ind)  -nan(ind)
  S6280213-6281001XX      1.00   -nan(ind)  -nan(ind)  -nan(ind)  -nan(ind)  -nan(ind)  -nan(ind)  -nan(ind)  -nan(ind)  -nan(ind)
  S6281001-6280205XX      1.70   -nan(ind)  -nan(ind)  -nan(ind)  -nan(ind)  -nan(ind)  -nan(ind)  -nan(ind)  -nan(ind)  -nan(ind)
  S6290201-6290209XX      1.00   -nan(ind)  -nan(ind)  -nan(ind)  -nan(ind)  -nan(ind)  -nan(ind)  -nan(ind)  -nan(ind)  -nan(ind)
  S6290201-6290210XX      2.71   -nan(ind)  -nan(ind)  -nan(ind)  -nan(ind)  -nan(ind)  -nan(ind)  -nan(ind)  -nan(ind)  -nan(ind)
  S6290202-6290201XX      1.00   -nan(ind)  -nan(ind)  -nan(ind)  -nan(ind)  -nan(ind)  -nan(ind)  -nan(ind)  -nan(ind)  -nan(ind)
  S6290203-6290202XX      1.00   -nan(ind)  -nan(ind)  -nan(ind)  -nan(ind)  -nan(ind)  -nan(ind)  -nan(ind)  -nan(ind)  -nan(ind)
  S6290204-6290214XX     17.05   -nan(ind)  -nan(ind)  -nan(ind)  -nan(ind)  -nan(ind)  -nan(ind)  -nan(ind)  -nan(ind)  -nan(ind)
  S6290205-6290204XX      1.00   -nan(ind)  -nan(ind)  -nan(ind)  -nan(ind)  -nan(ind)  -nan(ind)  -nan(ind)  -nan(ind)  -nan(ind)
  S6290208-6290218XX      1.00   -nan(ind)  -nan(ind)  -nan(ind)  -nan(ind)  -nan(ind)  -nan(ind)  -nan(ind)  -nan(ind)  -nan(ind)
  S6290209-6290208XX      1.00   -nan(ind)  -nan(ind)  -nan(ind)  -nan(ind)  -nan(ind)  -nan(ind)  -nan(ind)  -nan(ind)  -nan(ind)
  S6290210-6280213XX      1.00   -nan(ind)  -nan(ind)  -nan(ind)  -nan(ind)  -nan(ind)  -nan(ind)  -nan(ind)  -nan(ind)  -nan(ind)
  S6290211-6290224XX      1.00   -nan(ind)  -nan(ind)  -nan(ind)  -nan(ind)  -nan(ind)  -nan(ind)  -nan(ind)  -nan(ind)  -nan(ind)
  S6290212-6290211XX      1.00   -nan(ind)  -nan(ind)  -nan(ind)  -nan(ind)  -nan(ind)  -nan(ind)  -nan(ind)  -nan(ind)  -nan(ind)
  S6290213-6290212XX      1.00   -nan(ind)  -nan(ind)  -nan(ind)  -nan(ind)  -nan(ind)  -nan(ind)  -nan(ind)  -nan(ind)  -nan(ind)
  S6290214-6520215XX      1.00   -nan(ind)  -nan(ind)  -nan(ind)  -nan(ind)  -nan(ind)  -nan(ind)  -nan(ind)  -nan(ind)  -nan(ind)
  S6290216-6290217XX      1.00   -nan(ind)  -nan(ind)  -nan(ind)  -nan(ind)  -nan(ind)  -nan(ind)  -nan(ind)  -nan(ind)  -nan(ind)
  S6290216-6290218XX      2.47   -nan(ind)  -nan(ind)  -nan(ind)  -nan(ind)  -nan(ind)  -nan(ind)  -nan(ind)  -nan(ind)  -nan(ind)
  S6290217-6520225XX      1.00   -nan(ind)  -nan(ind)  -nan(ind)  -nan(ind)  -nan(ind)  -nan(ind)  -nan(ind)  -nan(ind)  -nan(ind)
  S6290218-6290217XX      1.00   -nan(ind)  -nan(ind)  -nan(ind)  -nan(ind)  -nan(ind)  -nan(ind)  -nan(ind)  -nan(ind)  -nan(ind)
  S6290223-6290203XX      1.00   -nan(ind)  -nan(ind)  -nan(ind)  -nan(ind)  -nan(ind)  -nan(ind)  -nan(ind)  -nan(ind)  -nan(ind)
  S6290224-6290205XX     17.10   -nan(ind)  -nan(ind)  -nan(ind)  -nan(ind)  -nan(ind)  -nan(ind)  -nan(ind)  -nan(ind)  -nan(ind)
  S6300201-6300204XX      1.00   -nan(ind)  -nan(ind)  -nan(ind)  -nan(ind)  -nan(ind)  -nan(ind)  -nan(ind)  -nan(ind)  -nan(ind)
  S6300202-6300210XX      1.00   -nan(ind)  -nan(ind)  -nan(ind)  -nan(ind)  -nan(ind)  -nan(ind)  -nan(ind)  -nan(ind)  -nan(ind)
  S6300203-6300202XX      1.00   -nan(ind)  -nan(ind)  -nan(ind)  -nan(ind)  -nan(ind)  -nan(ind)  -nan(ind)  -nan(ind)  -nan(ind)
  S6300204-6300203XX      1.00   -nan(ind)  -nan(ind)  -nan(ind)  -nan(ind)  -nan(ind)  -nan(ind)  -nan(ind)  -nan(ind)  -nan(ind)
  S6300205-6300203XX      1.00   -nan(ind)  -nan(ind)  -nan(ind)  -nan(ind)  -nan(ind)  -nan(ind)  -nan(ind)  -nan(ind)  -nan(ind)
  S6300209-6290216XX      1.00   -nan(ind)  -nan(ind)  -nan(ind)  -nan(ind)  -nan(ind)  -nan(ind)  -nan(ind)  -nan(ind)  -nan(ind)
  S6300210-6520209XX      1.00   -nan(ind)  -nan(ind)  -nan(ind)  -nan(ind)  -nan(ind)  -nan(ind)  -nan(ind)  -nan(ind)  -nan(ind)
  S6300211-6300201XX      1.00   -nan(ind)  -nan(ind)  -nan(ind)  -nan(ind)  -nan(ind)  -nan(ind)  -nan(ind)  -nan(ind)  -nan(ind)
  S6300212-6300211XX      1.89   -nan(ind)  -nan(ind)  -nan(ind)  -nan(ind)  -nan(ind)  -nan(ind)  -nan(ind)  -nan(ind)  -nan(ind)
  S6300213-6300212XX      1.00   -nan(ind)  -nan(ind)  -nan(ind)  -nan(ind)  -nan(ind)  -nan(ind)  -nan(ind)  -nan(ind)  -nan(ind)
  S6310201-6310208XX      1.00   -nan(ind)  -nan(ind)  -nan(ind)  -nan(ind)  -nan(ind)  -nan(ind)  -nan(ind)  -nan(ind)  -nan(ind)
  S6310202-6310201XX      1.00   -nan(ind)  -nan(ind)  -nan(ind)  -nan(ind)  -nan(ind)  -nan(ind)  -nan(ind)  -nan(ind)  -nan(ind)
  S6310203-6310202XX      1.00   -nan(ind)  -nan(ind)  -nan(ind)  -nan(ind)  -nan(ind)  -nan(ind)  -nan(ind)  -nan(ind)  -nan(ind)
  S6310206-6310207XX      1.00   -nan(ind)  -nan(ind)  -nan(ind)  -nan(ind)  -nan(ind)  -nan(ind)  -nan(ind)  -nan(ind)  -nan(ind)
  S6310207-6310210XX      1.00   -nan(ind)  -nan(ind)  -nan(ind)  -nan(ind)  -nan(ind)  -nan(ind)  -nan(ind)  -nan(ind)  -nan(ind)
  S6310208-6500207XX      1.00   -nan(ind)  -nan(ind)  -nan(ind)  -nan(ind)  -nan(ind)  -nan(ind)  -nan(ind)  -nan(ind)  -nan(ind)
  S6310209-6310202XX      1.00   -nan(ind)  -nan(ind)  -nan(ind)  -nan(ind)  -nan(ind)  -nan(ind)  -nan(ind)  -nan(ind)  -nan(ind)
  S6310210-6310209XX      1.00   -nan(ind)  -nan(ind)  -nan(ind)  -nan(ind)  -nan(ind)  -nan(ind)  -nan(ind)  -nan(ind)  -nan(ind)
  S6480201-6490206XX      1.00   -nan(ind)  -nan(ind)  -nan(ind)  -nan(ind)  -nan(ind)  -nan(ind)  -nan(ind)  -nan(ind)  -nan(ind)
  S6480202-6480201XX      1.00   -nan(ind)  -nan(ind)  -nan(ind)  -nan(ind)  -nan(ind)  -nan(ind)  -nan(ind)  -nan(ind)  -nan(ind)
  S6490201-6500201XX      1.00   -nan(ind)  -nan(ind)  -nan(ind)  -nan(ind)  -nan(ind)  -nan(ind)  -nan(ind)  -nan(ind)  -nan(ind)
  S6490204-6490201XX      1.00   -nan(ind)  -nan(ind)  -nan(ind)  -nan(ind)  -nan(ind)  -nan(ind)  -nan(ind)  -nan(ind)  -nan(ind)
  S6490205-6490204XX      1.00   -nan(ind)  -nan(ind)  -nan(ind)  -nan(ind)  -nan(ind)  -nan(ind)  -nan(ind)  -nan(ind)  -nan(ind)
  S6490206-6490205XX      1.00   -nan(ind)  -nan(ind)  -nan(ind)  -nan(ind)  -nan(ind)  -nan(ind)  -nan(ind)  -nan(ind)  -nan(ind)
  S6500201-6500202XX      1.00   -nan(ind)  -nan(ind)  -nan(ind)  -nan(ind)  -nan(ind)  -nan(ind)  -nan(ind)  -nan(ind)  -nan(ind)
  S6500202-6500205XX      3.09   -nan(ind)  -nan(ind)  -nan(ind)  -nan(ind)  -nan(ind)  -nan(ind)  -nan(ind)  -nan(ind)  -nan(ind)
  S6500203-6500210XX      1.00   -nan(ind)  -nan(ind)  -nan(ind)  -nan(ind)  -nan(ind)  -nan(ind)  -nan(ind)  -nan(ind)  -nan(ind)
  S6500204-6500203XX      1.00   -nan(ind)  -nan(ind)  -nan(ind)  -nan(ind)  -nan(ind)  -nan(ind)  -nan(ind)  -nan(ind)  -nan(ind)
  S6500205-6500204XX      1.00   -nan(ind)  -nan(ind)  -nan(ind)  -nan(ind)  -nan(ind)  -nan(ind)  -nan(ind)  -nan(ind)  -nan(ind)
  S6500206-6500209XX      1.00   -nan(ind)  -nan(ind)  -nan(ind)  -nan(ind)  -nan(ind)  -nan(ind)  -nan(ind)  -nan(ind)  -nan(ind)
  S6500207-6500206XX      1.00   -nan(ind)  -nan(ind)  -nan(ind)  -nan(ind)  -nan(ind)  -nan(ind)  -nan(ind)  -nan(ind)  -nan(ind)
  S6500209-6510201XX      1.00   -nan(ind)  -nan(ind)  -nan(ind)  -nan(ind)  -nan(ind)  -nan(ind)  -nan(ind)  -nan(ind)  -nan(ind)
  S6500210-6500211XX      1.00   -nan(ind)  -nan(ind)  -nan(ind)  -nan(ind)  -nan(ind)  -nan(ind)  -nan(ind)  -nan(ind)  -nan(ind)
  S6500211-6510202XX      1.00   -nan(ind)  -nan(ind)  -nan(ind)  -nan(ind)  -nan(ind)  -nan(ind)  -nan(ind)  -nan(ind)  -nan(ind)
  S6500212-6510212XX      1.00   -nan(ind)  -nan(ind)  -nan(ind)  -nan(ind)  -nan(ind)  -nan(ind)  -nan(ind)  -nan(ind)  -nan(ind)
  S6500213-6500212XX      1.00   -nan(ind)  -nan(ind)  -nan(ind)  -nan(ind)  -nan(ind)  -nan(ind)  -nan(ind)  -nan(ind)  -nan(ind)
  S6500214-6500213XX      1.00   -nan(ind)  -nan(ind)  -nan(ind)  -nan(ind)  -nan(ind)  -nan(ind)  -nan(ind)  -nan(ind)  -nan(ind)
  S6500216-6500217XX      1.00   -nan(ind)  -nan(ind)  -nan(ind)  -nan(ind)  -nan(ind)  -nan(ind)  -nan(ind)  -nan(ind)  -nan(ind)
  S6500217-6500218XX      1.00   -nan(ind)  -nan(ind)  -nan(ind)  -nan(ind)  -nan(ind)  -nan(ind)  -nan(ind)  -nan(ind)  -nan(ind)
  S6500218-6510213XX      1.00   -nan(ind)  -nan(ind)  -nan(ind)  -nan(ind)  -nan(ind)  -nan(ind)  -nan(ind)  -nan(ind)  -nan(ind)
  S650205-960205XX        1.00   -nan(ind)  -nan(ind)  -nan(ind)  -nan(ind)  -nan(ind)  -nan(ind)  -nan(ind)  -nan(ind)  -nan(ind)
  S650214-650205XX        1.00   -nan(ind)  -nan(ind)  -nan(ind)  -nan(ind)  -nan(ind)  -nan(ind)  -nan(ind)  -nan(ind)  -nan(ind)
  S6510201-6510203XX      1.00   -nan(ind)  -nan(ind)  -nan(ind)  -nan(ind)  -nan(ind)  -nan(ind)  -nan(ind)  -nan(ind)  -nan(ind)
  S6510202-6510203XX      3.35   -nan(ind)  -nan(ind)  -nan(ind)  -nan(ind)  -nan(ind)  -nan(ind)  -nan(ind)  -nan(ind)  -nan(ind)
  S6510203-6510205XX      1.00   -nan(ind)  -nan(ind)  -nan(ind)  -nan(ind)  -nan(ind)  -nan(ind)  -nan(ind)  -nan(ind)  -nan(ind)
  S6510205-6510211XX      1.00   -nan(ind)  -nan(ind)  -nan(ind)  -nan(ind)  -nan(ind)  -nan(ind)  -nan(ind)  -nan(ind)  -nan(ind)
  S6510206-6510205XX     14.84   -nan(ind)  -nan(ind)  -nan(ind)  -nan(ind)  -nan(ind)  -nan(ind)  -nan(ind)  -nan(ind)  -nan(ind)
  S6510207-6510209XX      1.00   -nan(ind)  -nan(ind)  -nan(ind)  -nan(ind)  -nan(ind)  -nan(ind)  -nan(ind)  -nan(ind)  -nan(ind)
  S6510208-6510210XX      1.00   -nan(ind)  -nan(ind)  -nan(ind)  -nan(ind)  -nan(ind)  -nan(ind)  -nan(ind)  -nan(ind)  -nan(ind)
  S6510210-6520208XX      1.00   -nan(ind)  -nan(ind)  -nan(ind)  -nan(ind)  -nan(ind)  -nan(ind)  -nan(ind)  -nan(ind)  -nan(ind)
  S6510211-6510208XX      1.00   -nan(ind)  -nan(ind)  -nan(ind)  -nan(ind)  -nan(ind)  -nan(ind)  -nan(ind)  -nan(ind)  -nan(ind)
  S6510212-6510206XX      1.00   -nan(ind)  -nan(ind)  -nan(ind)  -nan(ind)  -nan(ind)  -nan(ind)  -nan(ind)  -nan(ind)  -nan(ind)
  S6510213-6510207XX      1.00   -nan(ind)  -nan(ind)  -nan(ind)  -nan(ind)  -nan(ind)  -nan(ind)  -nan(ind)  -nan(ind)  -nan(ind)
  S6520202-6520211XX      1.20   -nan(ind)  -nan(ind)  -nan(ind)  -nan(ind)  -nan(ind)  -nan(ind)  -nan(ind)  -nan(ind)  -nan(ind)
  S6520203-6520214XX      2.30   -nan(ind)  -nan(ind)  -nan(ind)  -nan(ind)  -nan(ind)  -nan(ind)  -nan(ind)  -nan(ind)  -nan(ind)
  S6520205-6520204XX      6.11   -nan(ind)  -nan(ind)  -nan(ind)  -nan(ind)  -nan(ind)  -nan(ind)  -nan(ind)  -nan(ind)  -nan(ind)
  S6520207-6520202XX      1.36   -nan(ind)  -nan(ind)  -nan(ind)  -nan(ind)  -nan(ind)  -nan(ind)  -nan(ind)  -nan(ind)  -nan(ind)
  S6520208-6520225XX      1.88   -nan(ind)  -nan(ind)  -nan(ind)  -nan(ind)  -nan(ind)  -nan(ind)  -nan(ind)  -nan(ind)  -nan(ind)
  S6520211-6520212XX      6.25   -nan(ind)  -nan(ind)  -nan(ind)  -nan(ind)  -nan(ind)  -nan(ind)  -nan(ind)  -nan(ind)  -nan(ind)
  S6520212-6520214XX      1.79   -nan(ind)  -nan(ind)  -nan(ind)  -nan(ind)  -nan(ind)  -nan(ind)  -nan(ind)  -nan(ind)  -nan(ind)
  S6520214-6520204XX      1.32   -nan(ind)  -nan(ind)  -nan(ind)  -nan(ind)  -nan(ind)  -nan(ind)  -nan(ind)  -nan(ind)  -nan(ind)
  S6520215-6520203XX      5.16   -nan(ind)  -nan(ind)  -nan(ind)  -nan(ind)  -nan(ind)  -nan(ind)  -nan(ind)  -nan(ind)  -nan(ind)
  S6520225-6520205XX      3.84   -nan(ind)  -nan(ind)  -nan(ind)  -nan(ind)  -nan(ind)  -nan(ind)  -nan(ind)  -nan(ind)  -nan(ind)
  S6730201-6480202XX      1.00   -nan(ind)  -nan(ind)  -nan(ind)  -nan(ind)  -nan(ind)  -nan(ind)  -nan(ind)  -nan(ind)  -nan(ind)
  S6730202-6730201XX      1.00   -nan(ind)  -nan(ind)  -nan(ind)  -nan(ind)  -nan(ind)  -nan(ind)  -nan(ind)  -nan(ind)  -nan(ind)
  S6740201-6730202XX      1.00   -nan(ind)  -nan(ind)  -nan(ind)  -nan(ind)  -nan(ind)  -nan(ind)  -nan(ind)  -nan(ind)  -nan(ind)
  S6740202-6740201XX      1.00   -nan(ind)  -nan(ind)  -nan(ind)  -nan(ind)  -nan(ind)  -nan(ind)  -nan(ind)  -nan(ind)  -nan(ind)
  S860212-1150208XX       1.00   -nan(ind)  -nan(ind)  -nan(ind)  -nan(ind)  -nan(ind)  -nan(ind)  -nan(ind)  -nan(ind)  -nan(ind)
  S960205-960206XX        1.00   -nan(ind)  -nan(ind)  -nan(ind)  -nan(ind)  -nan(ind)  -nan(ind)  -nan(ind)  -nan(ind)  -nan(ind)
  S960206-1050205XX       1.00   -nan(ind)  -nan(ind)  -nan(ind)  -nan(ind)  -nan(ind)  -nan(ind)  -nan(ind)  -nan(ind)  -nan(ind)
  
  
  *************************
  Conduit Surcharge Summary
  *************************
  
  No conduits were surcharged.
  
  
  ***************
  Pumping Summary
  ***************
  
  ---------------------------------------------------------------------------------------------------------
                                                  Min       Avg       Max     Total     Power    % Time Off
                        Percent   Number of      Flow      Flow      Flow    Volume     Usage    Pump Curve
  Pump                 Utilized   Start-Ups       MGD       MGD       MGD  10^6 gal     Kw-hr    Low   High
  ---------------------------------------------------------------------------------------------------------
  PUMP-11              -nan(ind)           0      0.00      0.00      0.00     0.000      0.00    0.0    0.0
  PUMP-17              -nan(ind)           0      0.00      0.00      0.00     0.000      0.00    0.0    0.0
  S5850201-5850202XX   -nan(ind)           0      0.00      0.00      0.00     0.000      0.00    0.0    0.0
  

  Analysis begun on:  Sat Nov 30 08:10:45 2019
  Analysis ended on:  Sat Nov 30 08:10:45 2019
  Total elapsed time: < 1 sec