
  EPA STORM WATER MANAGEMENT MODEL - VERSION 5.1 (Build 5.1.013)
  --------------------------------------------------------------

  Scenario Run :  BASE 
  
  WARNING 04: minimum elevation drop used for Conduit 175
  WARNING 04: minimum elevation drop used for Conduit 519.1
  WARNING 02: maximum depth increased for Node 15513
  WARNING 02: maximum depth increased for Node 9625
  WARNING 02: maximum depth increased for Node 9821
  WARNING 02: maximum depth increased for Node XS2
  WARNING 02: maximum depth increased for Node XS3
  
  *************
  Element Count
  *************
  Number of rain gages ...... 1
  Number of subcatchments ... 133
  Number of nodes ........... 198
  Number of links ........... 245
  Number of pollutants ...... 0
  Number of land uses ....... 0
  
  
  ****************
  Raingage Summary
  ****************
                                                      Data       Recording
  Name                 Data Source                    Type       Interval 
  ------------------------------------------------------------------------
  BVILLE 14 100YRGAGE  BVILLE 14 100YR                CUMULATIVE   6 min.
  
  
  ********************
  Subcatchment Summary
  ********************
  Name                       Area     Width   %Imperv    %Slope Rain Gage            Outlet              
  -----------------------------------------------------------------------------------------------------------
  11531#1                    0.37      0.01     57.10    5.6705 BVILLE 14 100YRGAGE  11531               
  11534#1                    8.03      0.01     23.60   20.7673 BVILLE 14 100YRGAGE  11534               
  12482#1                    1.96      0.01     39.10    9.6140 BVILLE 14 100YRGAGE  12482               
  12556#1                   72.62      0.06      8.00   16.3948 BVILLE 14 100YRGAGE  12556               
  12559#1                   22.55      0.04      6.90   15.6226 BVILLE 14 100YRGAGE  12559               
  12560#1                   20.39      0.04      8.50   13.3237 BVILLE 14 100YRGAGE  12560               
  12562#1                    0.46      0.01      7.90    9.1433 BVILLE 14 100YRGAGE  12562               
  13149#1                   18.99      0.03     18.40   14.4412 BVILLE 14 100YRGAGE  13149               
  13457#1                    7.01      0.02     37.00    6.7889 BVILLE 14 100YRGAGE  13457               
  13698#1                    9.33      0.02     14.70   15.2267 BVILLE 14 100YRGAGE  13698               
  15512#1                   10.05      0.02     15.20   12.8415 BVILLE 14 100YRGAGE  15512               
  15513#1                    2.22      0.01     12.60   15.9000 BVILLE 14 100YRGAGE  15513               
  4039#1                     7.98      0.02     29.60    7.2504 BVILLE 14 100YRGAGE  4039                
  4040#1                     1.50      0.01     38.90    4.4152 BVILLE 14 100YRGAGE  4040                
  4063#1                     7.32      0.02     27.90    9.5428 BVILLE 14 100YRGAGE  4063                
  4095#1                     3.95      0.04     67.30    4.3591 BVILLE 14 100YRGAGE  4095                
  4097#1                     1.58      0.01     45.80    7.6158 BVILLE 14 100YRGAGE  4097                
  4100#1                     1.61      0.01     54.40   14.5675 BVILLE 14 100YRGAGE  4100                
  4134#1                    14.16      0.06     39.40   10.5340 BVILLE 14 100YRGAGE  4134                
  4438#1                     0.23      0.00     58.20    6.4167 BVILLE 14 100YRGAGE  4438                
  4556#1                     8.57      0.01     38.20    7.2193 BVILLE 14 100YRGAGE  4556                
  4561#1                     2.84      0.01     61.30    6.1894 BVILLE 14 100YRGAGE  4561                
  4563#1                     0.09      0.00     19.50    6.9644 BVILLE 14 100YRGAGE  4563                
  4565#1                     0.39      0.01     39.30    5.4379 BVILLE 14 100YRGAGE  4565                
  4566#1                     1.33      0.01     67.00    5.2057 BVILLE 14 100YRGAGE  4566                
  4569#1                     2.17      0.01     54.30    6.6879 BVILLE 14 100YRGAGE  4569                
  4570#1                     1.24      0.01     51.50    5.5596 BVILLE 14 100YRGAGE  4570                
  4572#1                     1.00      0.00     81.80    5.8755 BVILLE 14 100YRGAGE  4572                
  4574#1                     0.39      0.00     65.00    6.2245 BVILLE 14 100YRGAGE  4574                
  4581#1                     1.53      0.01     81.60    3.6575 BVILLE 14 100YRGAGE  4581                
  4582#1                     4.99      0.02     43.80    6.2937 BVILLE 14 100YRGAGE  4582                
  4587#1                     7.80      0.02     46.70    5.5189 BVILLE 14 100YRGAGE  4587                
  4592#1                     2.10      0.01     81.90    5.4943 BVILLE 14 100YRGAGE  4592                
  4594#1                     3.19      0.01     40.40    5.7984 BVILLE 14 100YRGAGE  4594                
  4595#1                     1.55      0.01     61.20    4.7347 BVILLE 14 100YRGAGE  4595                
  4599#1                     3.43      0.01     55.30    6.4846 BVILLE 14 100YRGAGE  4599                
  6811#1                     3.00      0.01     38.60   12.2278 BVILLE 14 100YRGAGE  6811                
  6812#1                     1.39      0.01     40.80    8.1833 BVILLE 14 100YRGAGE  6812                
  6814#1                     3.06      0.01     20.80   11.1520 BVILLE 14 100YRGAGE  6814                
  6815#1                     0.64      0.01     25.90    8.3558 BVILLE 14 100YRGAGE  6815                
  6816#1                     0.14      0.00     15.70    8.8858 BVILLE 14 100YRGAGE  6816                
  6817#1                     0.19      0.00      3.50    8.0639 BVILLE 14 100YRGAGE  6817                
  6818#1                     5.74      0.02     22.90    9.1824 BVILLE 14 100YRGAGE  6818                
  6819#1                     1.05      0.01     30.00    7.8763 BVILLE 14 100YRGAGE  6819                
  6820#1                     0.55      0.00     10.60    5.2162 BVILLE 14 100YRGAGE  6820                
  6822#1                     0.29      0.00     30.20    6.9028 BVILLE 14 100YRGAGE  6822                
  6828#1                     0.32      0.00     42.50   11.5177 BVILLE 14 100YRGAGE  6828                
  6829#1                     0.18      0.01     99.70   10.7699 BVILLE 14 100YRGAGE  6829                
  6835#1                     0.44      0.01     99.40    5.4691 BVILLE 14 100YRGAGE  6835                
  7785#1                     1.69      0.01     44.90   15.4137 BVILLE 14 100YRGAGE  7785                
  7787#1                     5.63      0.01     43.50   17.4168 BVILLE 14 100YRGAGE  7787                
  7789#1                     0.44      0.01     47.80    9.3001 BVILLE 14 100YRGAGE  7789                
  7790#1                     0.13      0.01     63.60    6.5616 BVILLE 14 100YRGAGE  7790                
  7791#1                     1.19      0.01     28.70   18.4179 BVILLE 14 100YRGAGE  7791                
  7792#1                     0.66      0.01     41.40   13.0603 BVILLE 14 100YRGAGE  7792                
  7796#1                     2.25      0.01     67.50    8.4050 BVILLE 14 100YRGAGE  7796                
  7797#1                     5.39      0.02     33.80   12.1101 BVILLE 14 100YRGAGE  7797                
  7798#1                     0.71      0.01     76.90   12.5483 BVILLE 14 100YRGAGE  7798                
  7800#1                    18.18      0.03     13.30   18.5953 BVILLE 14 100YRGAGE  7800                
  8000008#1                 17.92      0.03     11.40   15.2520 BVILLE 14 100YRGAGE  8000008             
  8000015#1                 58.69      0.05     11.70   14.9916 BVILLE 14 100YRGAGE  8000015             
  8000016#1                 17.73      0.02     12.20   18.7029 BVILLE 14 100YRGAGE  8000016             
  9325#1                     2.91      0.01     88.70    4.4260 BVILLE 14 100YRGAGE  9325                
  9329#1                     4.63      0.01     90.30    4.7681 BVILLE 14 100YRGAGE  9329                
  9333#1                     1.56      0.01     78.50    5.1706 BVILLE 14 100YRGAGE  9333                
  9334#1                     1.59      0.01     76.70    5.0656 BVILLE 14 100YRGAGE  9334                
  9342#1                     2.48      0.01     87.60    6.2395 BVILLE 14 100YRGAGE  9342                
  9379#1                     0.28      0.00     76.40    5.1837 BVILLE 14 100YRGAGE  9379                
  9382#1                     5.79      0.01     39.50    5.0715 BVILLE 14 100YRGAGE  9382                
  9629#1                    19.11      0.05     44.20    5.3621 BVILLE 14 100YRGAGE  9629                
  9638#1                     5.70      0.02     29.40   10.5826 BVILLE 14 100YRGAGE  9638                
  9639#1                     4.51      0.02     27.60    5.3480 BVILLE 14 100YRGAGE  9639                
  9647#1                     8.06      0.03     13.30   12.1557 BVILLE 14 100YRGAGE  9647                
  9648#1                     0.89      0.01     24.70    8.4877 BVILLE 14 100YRGAGE  9648                
  9651#1                     6.83      0.02     13.00   15.3868 BVILLE 14 100YRGAGE  9651                
  9657#1                     5.68      0.02     18.00   12.2321 BVILLE 14 100YRGAGE  9657                
  9664#1                    11.84      0.05     13.60   16.5889 BVILLE 14 100YRGAGE  9664                
  9668#1                     2.38      0.01      9.60   15.9021 BVILLE 14 100YRGAGE  9668                
  9669#1                     1.10      0.01      6.80   11.9454 BVILLE 14 100YRGAGE  9669                
  9673#1                    15.71      0.02     11.70   11.4059 BVILLE 14 100YRGAGE  9673                
  9675#1                     8.66      0.02     25.30   11.1812 BVILLE 14 100YRGAGE  9675                
  9679#1                     4.93      0.01     14.70   10.9700 BVILLE 14 100YRGAGE  9679                
  9682#1                     3.50      0.02     14.50   16.3574 BVILLE 14 100YRGAGE  9682                
  9685#1                     3.33      0.01     14.30   12.5808 BVILLE 14 100YRGAGE  9685                
  9686#1                     0.96      0.01      3.60   12.8737 BVILLE 14 100YRGAGE  9686                
  9688#1                     7.98      0.02      9.10   19.2693 BVILLE 14 100YRGAGE  9688                
  9690#1                     3.41      0.01     20.80   12.7480 BVILLE 14 100YRGAGE  9690                
  9694#1                     5.06      0.01     29.80   14.4782 BVILLE 14 100YRGAGE  9694                
  9806#1                     6.87      0.01     22.20   18.1135 BVILLE 14 100YRGAGE  9806                
  9819#1                     8.65      0.03     23.10   15.2855 BVILLE 14 100YRGAGE  9819                
  9821#1                     5.26      0.02     11.10   14.4169 BVILLE 14 100YRGAGE  9821                
  9832#1                     2.36      0.01     11.30   16.3475 BVILLE 14 100YRGAGE  9832                
  9834#1                     7.88      0.02     20.40   11.8887 BVILLE 14 100YRGAGE  9834                
  9843#1                     5.25      0.01     16.80    9.8751 BVILLE 14 100YRGAGE  9843                
  9846#1                     5.35      0.01     23.90   15.6928 BVILLE 14 100YRGAGE  9846                
  9849#1                    17.09      0.03     16.60   13.4988 BVILLE 14 100YRGAGE  9849                
  9865#1                     5.62      0.01     26.70   14.9352 BVILLE 14 100YRGAGE  9865                
  MH1-A#1                    0.90      0.01     32.70   10.7033 BVILLE 14 100YRGAGE  MH1-A               
  MH1-B#1                    1.78      0.01     62.70    5.3815 BVILLE 14 100YRGAGE  MH1-B               
  MH10-A#1                  82.75      0.06     11.20   13.7629 BVILLE 14 100YRGAGE  MH10-A              
  MH11-A#1                   5.14      0.01     18.30   16.0694 BVILLE 14 100YRGAGE  MH11-A              
  MH11-B#1                   7.86      0.02     21.70   12.3426 BVILLE 14 100YRGAGE  MH11-B              
  MH13-A#1                   2.09      0.01     26.50   19.3556 BVILLE 14 100YRGAGE  MH13-A              
  MH13-B#1                   1.08      0.00     22.50   21.9363 BVILLE 14 100YRGAGE  MH13-B              
  MH13-C#1                   0.72      0.00      7.60   25.1035 BVILLE 14 100YRGAGE  MH13-C              
  MH13-D#1                   3.18      0.02     17.40   17.2039 BVILLE 14 100YRGAGE  MH13-D              
  MH14-A#1                  13.65      0.01     17.20   15.1600 BVILLE 14 100YRGAGE  MH14-A              
  MH14-A#2                   3.65      0.02     53.70   15.2800 BVILLE 14 100YRGAGE  MH14-A              
  MH14-B#1                   5.04      0.01      6.70   13.8160 BVILLE 14 100YRGAGE  MH14-B              
  MH14-C#1                   2.18      0.02     22.10   17.4427 BVILLE 14 100YRGAGE  MH14-C              
  MH15-A#1                  50.00      0.03      6.00   17.8402 BVILLE 14 100YRGAGE  MH15-A              
  MH15-B#1                  28.98      0.02      8.60   19.8148 BVILLE 14 100YRGAGE  MH15-B              
  MH2-A#1                    4.38      0.02     71.00    7.6214 BVILLE 14 100YRGAGE  MH2-A               
  MH2-B#1                    1.12      0.00     29.60   10.8256 BVILLE 14 100YRGAGE  MH2-B               
  MH3-A#1                  377.64      0.12      7.10   14.0230 BVILLE 14 100YRGAGE  MH3-A               
  MH3-C#1                    7.28      0.01      3.50   18.6960 BVILLE 14 100YRGAGE  MH3-C               
  MH3-E#1                    2.60      0.01      5.20   24.1782 BVILLE 14 100YRGAGE  MH3-E               
  MH3-F#1                    7.73      0.03     43.40   11.8398 BVILLE 14 100YRGAGE  MH3-F               
  MH3-G#1                    0.49      0.00     92.00    9.4697 BVILLE 14 100YRGAGE  MH3-G               
  MH3-H#1                   47.27      0.05     12.10   14.4648 BVILLE 14 100YRGAGE  MH3-H               
  MH4-A#1                   15.41      0.02      4.80   18.1958 BVILLE 14 100YRGAGE  MH4-A               
  MH7-A#1                   19.67      0.01      5.90   18.3634 BVILLE 14 100YRGAGE  MH7-A               
  MH7-B#1                    5.74      0.01     18.40   11.6886 BVILLE 14 100YRGAGE  MH7-B               
  MH8-A#1                   16.36      0.03     10.20   13.4244 BVILLE 14 100YRGAGE  MH8-A               
  MH8-B#1                    3.96      0.01      8.40   18.5120 BVILLE 14 100YRGAGE  MH8-B               
  MH8-C#1                    6.38      0.01      7.80   13.1866 BVILLE 14 100YRGAGE  MH8-C               
  MH8-D#1                   21.53      0.02     11.60   13.5103 BVILLE 14 100YRGAGE  MH8-D               
  MH9-A#1                   12.03      0.01      7.30   12.4578 BVILLE 14 100YRGAGE  MH9-A               
  MH9-B#1                    6.38      0.02      2.40   23.7249 BVILLE 14 100YRGAGE  MH9-B               
  NODE321#1                  3.63      0.01     41.20   11.4685 BVILLE 14 100YRGAGE  NODE321             
  NODE322#1                  6.49      0.03     31.20   12.1308 BVILLE 14 100YRGAGE  NODE322             
  NODE340#1                 12.74      0.03     10.20   16.7041 BVILLE 14 100YRGAGE  NODE340             
  NODE354#1                 20.07      0.04      6.50   17.8261 BVILLE 14 100YRGAGE  NODE354             
  
  
  ************
  Node Summary
  ************
                                           Invert      Max.    Ponded    External
  Name                 Type                 Elev.     Depth      Area    Inflow  
  -------------------------------------------------------------------------------
  11531                JUNCTION           1004.19      7.54       0.0
  11533                JUNCTION           1027.36     12.90       0.0
  11534                JUNCTION           1007.36      1.75       0.0
  12482                JUNCTION            888.30      6.73       0.0
  12544                JUNCTION            908.91      4.67       0.0
  12556                JUNCTION            910.56      6.68       0.0
  12559                JUNCTION            950.12      4.71       0.0
  12560                JUNCTION            950.05      4.85       0.0
  12562                JUNCTION            944.90      6.00       0.0
  12565                JUNCTION            940.00      7.94       0.0
  13149                JUNCTION            897.65      6.49       0.0
  13457                JUNCTION           1033.08     10.42       0.0
  13691                JUNCTION            981.78     18.58       0.0
  13698                JUNCTION            919.09      2.23       0.0
  15397                JUNCTION           1020.04      9.70       0.0
  15407                JUNCTION            886.53      5.96       0.0
  15512                JUNCTION            865.00      5.50       0.0
  15513                JUNCTION            865.00      8.28       0.0
  4039                 JUNCTION            920.22      6.73       0.0
  4040                 JUNCTION            919.86      5.60       0.0
  4063                 JUNCTION            913.11      7.00       0.0
  4095                 JUNCTION            880.29      6.98       0.0
  4097                 JUNCTION            874.30      9.75       0.0
  4100                 JUNCTION            860.25     10.19       0.0
  4134                 JUNCTION            855.32      7.43       0.0
  4151                 JUNCTION            856.27      7.70       0.0
  4438                 JUNCTION            869.91      6.41       0.0
  4556                 JUNCTION            868.90      4.30       0.0
  4561                 JUNCTION            862.70      6.57       0.0
  4562                 JUNCTION            865.00      5.96       0.0
  4563                 JUNCTION            861.98      6.68       0.0
  4564                 JUNCTION            860.47      6.16       0.0
  4565                 JUNCTION            860.04      5.55       0.0
  4566                 JUNCTION            859.80      5.56       0.0
  4569                 JUNCTION            859.00      5.87       0.0
  4570                 JUNCTION            859.87      5.95       0.0
  4572                 JUNCTION            864.15      6.30       0.0
  4574                 JUNCTION            855.76      7.27       0.0
  4579                 JUNCTION            856.58      9.60       0.0
  4581                 JUNCTION            878.50     10.59       0.0
  4582                 JUNCTION            877.90      8.27       0.0
  4587                 JUNCTION            876.50      6.84       0.0
  4592                 JUNCTION            879.71      5.32       0.0
  4594                 JUNCTION            874.15      4.83       0.0
  4595                 JUNCTION            872.70      6.71       0.0
  4599                 JUNCTION            868.80      6.47       0.0
  6811                 JUNCTION           1074.07      6.67       0.0
  6812                 JUNCTION           1072.51     10.77       0.0
  6814                 JUNCTION           1071.30      7.98       0.0
  6815                 JUNCTION           1070.30      8.08       0.0
  6816                 JUNCTION           1068.82      5.70       0.0
  6817                 JUNCTION           1064.25      5.76       0.0
  6818                 JUNCTION           1061.62      4.58       0.0
  6819                 JUNCTION           1061.43      5.40       0.0
  6820                 JUNCTION           1060.53      6.28       0.0
  6822                 JUNCTION           1052.85     12.82       0.0
  6828                 JUNCTION           1005.82      6.69       0.0
  6829                 JUNCTION           1004.89      6.90       0.0
  6830                 JUNCTION            998.81     12.28       0.0
  6833                 JUNCTION           1004.53      7.22       0.0
  6835                 JUNCTION           1004.77      7.02       0.0
  7785                 JUNCTION           1015.74     10.95       0.0
  7787                 JUNCTION           1003.54      8.05       0.0
  7789                 JUNCTION           1006.33      7.86       0.0
  7790                 JUNCTION           1006.24      8.04       0.0
  7791                 JUNCTION           1006.57      9.85       0.0
  7792                 JUNCTION           1032.34      6.77       0.0
  7796                 JUNCTION            996.05      8.35       0.0
  7797                 JUNCTION            992.97     20.84       0.0
  7798                 JUNCTION            993.29     20.75       0.0
  7799                 JUNCTION            996.29      5.14       0.0
  7800                 JUNCTION            996.72      1.50       0.0
  9324                 JUNCTION            882.89      5.50       0.0
  9325                 JUNCTION            882.76      4.67       0.0
  9329                 JUNCTION            883.30      4.52       0.0
  9333                 JUNCTION            883.62      5.24       0.0
  9334                 JUNCTION            881.80      6.54       0.0
  9342                 JUNCTION            880.50      5.13       0.0
  9371                 JUNCTION            884.32      8.01       0.0
  9373                 JUNCTION            886.86      6.21       0.0
  9374                 JUNCTION            888.00      7.28       0.0
  9379                 JUNCTION            878.20     10.55       0.0
  9381                 JUNCTION            880.08     12.03       0.0
  9382                 JUNCTION            879.08     13.15       0.0
  9625                 JUNCTION            853.78     47.97       0.0
  9629                 JUNCTION            854.01      6.37       0.0
  9638                 JUNCTION            894.00     11.13       0.0
  9639                 JUNCTION            893.60      8.47       0.0
  9647                 JUNCTION            888.50      6.46       0.0
  9648                 JUNCTION            888.00      7.45       0.0
  9649                 JUNCTION            884.00     11.78       0.0
  9650                 JUNCTION            896.20     21.74       0.0
  9651                 JUNCTION            896.50      9.56       0.0
  9656                 JUNCTION            903.50      9.02       0.0
  9657                 JUNCTION            908.70      9.91       0.0
  9662                 JUNCTION            912.70      8.65       0.0
  9664                 JUNCTION            918.40     12.83       0.0
  9668                 JUNCTION            919.78      6.61       0.0
  9669                 JUNCTION            919.69      6.02       0.0
  9673                 JUNCTION            917.10      7.14       0.0
  9675                 JUNCTION            916.40      7.09       0.0
  9679                 JUNCTION            914.14      7.14       0.0
  9682                 JUNCTION            912.00      9.21       0.0
  9685                 JUNCTION            910.40     10.55       0.0
  9686                 JUNCTION            909.70     12.57       0.0
  9688                 JUNCTION            904.00      9.76       0.0
  9689                 JUNCTION            922.00     10.17       0.0
  9690                 JUNCTION            932.50      8.80       0.0
  9693                 JUNCTION            944.00     10.59       0.0
  9694                 JUNCTION            944.38     12.39       0.0
  9806                 JUNCTION            969.81      4.83       0.0
  9810                 JUNCTION            953.76     16.78       0.0
  9811                 JUNCTION            955.36     12.88       0.0
  9816                 JUNCTION            949.63      3.99       0.0
  9819                 JUNCTION            934.45      6.14       0.0
  9821                 JUNCTION            939.71      4.33       0.0
  9832                 JUNCTION            948.34      7.31       0.0
  9834                 JUNCTION            953.42      5.67       0.0
  9843                 JUNCTION            964.18      7.54       0.0
  9846                 JUNCTION            972.52      5.71       0.0
  9849                 JUNCTION            975.67     16.02       0.0
  9854                 JUNCTION            985.76     15.72       0.0
  9855                 JUNCTION            987.22     16.89       0.0
  9858                 JUNCTION            988.90     20.29       0.0
  9860                 JUNCTION            990.12     22.09       0.0
  9861                 JUNCTION            990.84     20.75       0.0
  9862                 JUNCTION            991.60     18.70       0.0
  9863                 JUNCTION            983.50     15.31       0.0
  9864                 JUNCTION            981.54     14.31       0.0
  9865                 JUNCTION            968.14     13.04       0.0
  NODE321              JUNCTION            947.00     11.56       0.0
  NODE322              JUNCTION            978.47      8.79       0.0
  NODE323              JUNCTION            975.90     10.56       0.0
  NODE324              JUNCTION            879.79     27.57       0.0
  NODE327              JUNCTION            869.52      9.64       0.0
  NODE339              JUNCTION            997.56      3.84       0.0
  NODE340              JUNCTION            979.00      6.41       0.0
  NODE345              JUNCTION            859.50      6.99       0.0
  NODE346              JUNCTION            870.84      6.16       0.0
  NODE348              JUNCTION            986.79      5.28       0.0
  NODE354              JUNCTION            939.98      5.30       0.0
  NODE355              JUNCTION            939.69      4.88       0.0
  NODE359              JUNCTION            980.50     11.33       0.0
  NODE360              JUNCTION            916.85      3.84       0.0
  NODE406              JUNCTION            994.00      6.00       0.0
  XS2                  JUNCTION            852.00     50.00       0.0
  XS3                  JUNCTION            853.55     50.00       0.0
  NODE395              OUTFALL             855.00      0.00       0.0
  NODE396              OUTFALL             887.00      0.00       0.0
  NODE397              OUTFALL            1010.00      0.00       0.0
  NODE398              OUTFALL            1050.00      0.00       0.0
  NODE399              OUTFALL            1039.00      0.00       0.0
  NODE400              OUTFALL            1050.00      0.00       0.0
  NODE401              OUTFALL            1052.00      0.00       0.0
  NODE402              OUTFALL            1037.00      0.00       0.0
  NODE403              OUTFALL            1007.00      0.00       0.0
  NODE404              OUTFALL            1041.00      0.00       0.0
  NODE405              OUTFALL             970.00      0.00       0.0
  NODE407              OUTFALL            1042.00      0.00       0.0
  NODE408              OUTFALL            1030.00      0.00       0.0
  NODE409              OUTFALL            1008.00      0.00       0.0
  NODE410              OUTFALL             857.00      0.00       0.0
  OUTLET1              OUTFALL             850.00     40.93       0.0
  8000008              STORAGE            1038.00      5.00       0.0
  8000015              STORAGE            1006.00     25.00       0.0
  8000016              STORAGE             998.00     11.00       0.0
  MH1-A                STORAGE             853.30      3.50       0.0
  MH1-B                STORAGE             891.50      2.50       0.0
  MH10-A               STORAGE             939.00     32.00       0.0
  MH11-A               STORAGE             949.47     10.53       0.0
  MH11-B               STORAGE             994.00     14.00       0.0
  MH13-A               STORAGE             980.71     20.29       0.0
  MH13-B               STORAGE             980.00     21.00       0.0
  MH13-C               STORAGE             980.00     21.00       0.0
  MH13-D               STORAGE             980.46     20.54       0.0
  MH14-A               STORAGE             999.93     12.07       0.0
  MH14-B               STORAGE            1040.00     11.00       0.0
  MH14-C               STORAGE            1004.96      9.04       0.0
  MH15-A               STORAGE             987.00     30.00       0.0
  MH15-B               STORAGE             987.00     24.00       0.0
  MH2-A                STORAGE             862.09      2.00       0.0
  MH2-B                STORAGE             855.98      2.50       0.0
  MH3-A                STORAGE             854.85     57.44       0.0
  MH3-C                STORAGE             904.00      2.00       0.0
  MH3-D                STORAGE             906.00      3.00       0.0
  MH3-E                STORAGE             921.15      3.85       0.0
  MH3-F                STORAGE             908.91      6.09       0.0
  MH3-G                STORAGE             902.61      4.39       0.0
  MH3-H                STORAGE             920.00      6.00       0.0
  MH4-A                STORAGE             882.00      6.00       0.0
  MH7-A                STORAGE            1000.00      8.00       0.0
  MH7-B                STORAGE            1043.00      8.00       0.0
  MH8-A                STORAGE            1032.00      6.00       0.0
  MH8-B                STORAGE            1022.00     18.00       0.0
  MH8-C                STORAGE            1045.00      8.00       0.0
  MH8-D                STORAGE            1034.00      8.00       0.0
  MH9-A                STORAGE             939.59      4.41       0.0
  MH9-B                STORAGE             940.11      8.83       0.0
  
  
  ************
  Link Summary
  ************
  Name             From Node        To Node          Type            Length    %Slope Roughness
  ---------------------------------------------------------------------------------------------
  10484            4565             NODE345          CONDUIT           60.7    0.8890    0.0130
  10486            4562             4564             CONDUIT          368.9    1.2009    0.0130
  10487            4556             4562             CONDUIT          235.1    1.6164    0.0130
  10488            NODE346          4556             CONDUIT          199.7    0.9213    0.0130
  10489            4594             NODE346          CONDUIT          246.5    1.3025    0.0130
  10491            4592             4594             CONDUIT          237.2    2.3029    0.0130
  10493            9334             9342             CONDUIT          227.0    0.5287    0.0130
  11320            6812             6814             CONDUIT          324.1    0.3733    0.0130
  11321            6811             6812             CONDUIT          259.3    0.6016    0.0130
  11325            6815             6816             CONDUIT           97.7    1.5145    0.0130
  11328            6818             6819             CONDUIT          100.5    0.1890    0.0130
  11330            6820             6822             CONDUIT          221.2    1.6413    0.0130
  11333            6822             11533            CONDUIT          229.0    8.9738    0.0130
  11334            11533            15397            CONDUIT          186.1    3.9373    0.0130
  11336            7785             7787             CONDUIT          224.4    5.4448    0.0130
  11338            7787             NODE348          CONDUIT          187.0    8.9934    0.0130
  11339            NODE348          MH13-A           CONDUIT           46.8   13.1025    0.0130
  11340            NODE359          13691            CONDUIT           30.3    0.8920    0.0130
  11341            MH13-D           NODE359          CONDUIT           39.2   -0.1022    0.0130
  11342            13691            NODE339          CONDUIT           25.4    8.5866    0.0130
  11343            11534            7791             CONDUIT          206.5    0.3826    0.0130
  11344            7791             7789             CONDUIT           65.3    0.3674    0.0130
  11345            7789             7790             CONDUIT           30.0    0.3003    0.0130
  11346            7790             MH14-C           CONDUIT           57.9    0.3624    0.0130
  11347            MH14-C           6833             CONDUIT           28.4    1.5124    0.0130
  11348            6833             6829             CONDUIT           44.9    3.2074    0.0130
  11456            9629             9625             CONDUIT          104.5    0.1512    0.0130
  11457.1          9629             9625             CONDUIT          104.3    0.5781    0.0130
  11526            9371             9381             CONDUIT           71.6    1.9839    0.0130
  11527            9373             9371             CONDUIT           67.4    1.0973    0.0130
  11530            9374             9373             CONDUIT           25.1    3.7506    0.0110
  11645            9325             9324             CONDUIT           14.9   -0.8703    0.0130
  11646            9329             9324             CONDUIT          157.3    0.2607    0.0130
  11647            9324             9334             CONDUIT          214.8    0.4608    0.0130
  11736            MH1-B            9374             CONDUIT           14.2   10.6532    0.0110
  11996            MH3-G            MH3-A            CONDUIT           38.0   11.8991    0.0130
  12078            NODE360          12556            CONDUIT          168.7    0.5097    0.0130
  12084.1          12556            MH3-A            CONDUIT           47.9    5.3315    0.0130
  12085.1          12556            MH3-A            CONDUIT           48.6    3.1928    0.0130
  12151            12562            MH9-B            CONDUIT           32.3    2.8228    0.0130
  12152            12559            12560            CONDUIT           26.4   -0.9848    0.0130
  13647            7798             7797             CONDUIT           37.5    0.5873    0.0130
  15118            9647             12482            CONDUIT           13.4    1.4980    0.0130
  16491            15512            MH3-A            CONDUIT           79.6    1.2564    0.0130
  175              MH11-A           9816             CONDUIT           22.6    0.0044    0.0130
  178              9816             NODE321          CONDUIT          231.6    1.1355    0.0130
  180              9810             MH11-A           CONDUIT           74.8    6.1316    0.0130
  181              9865             9810             CONDUIT          300.3    4.6977    0.0130
  182              9849             9865             CONDUIT          227.1    3.3181    0.0130
  184              NODE323          9849             CONDUIT           51.7    0.4450    0.0130
  185              9864             9849             CONDUIT          254.7    2.3049    0.0130
  186              9863             9864             CONDUIT          193.9    1.0111    0.0130
  187              9854             9863             CONDUIT          244.5    0.5973    0.0130
  188              9855             9854             CONDUIT          242.9    0.6011    0.0130
  189              9858             9855             CONDUIT          281.0    0.5979    0.0130
  190              9860             9858             CONDUIT          203.1    0.6007    0.0130
  191              9861             9860             CONDUIT          121.6    0.5923    0.0130
  192              9862             9861             CONDUIT          124.5    0.6102    0.0130
  193              7797             9862             CONDUIT           82.4    1.3356    0.0130
  206              7796             7797             CONDUIT          428.1    0.5092    0.0130
  209              6830             7796             CONDUIT          353.0    0.6063    0.0130
  211              MH14-A           6830             CONDUIT          149.6    0.6753    0.0130
  212              6829             6835             CONDUIT           54.6    1.0076    0.0130
  213              6835             11531            CONDUIT           64.6    0.8979    0.0130
  2959             4063             NODE324          CONDUIT          138.9   21.4292    0.0130
  2963             9648             9649             CONDUIT           24.4    4.1037    0.0130
  3045             9686             9688             CONDUIT          166.5    3.4251    0.0130
  3047             9651             9650             CONDUIT          147.8    1.0827    0.0130
  3048             9639             9649             CONDUIT          226.2    4.2471    0.0130
  3052             9664             9662             CONDUIT          129.7    4.3993    0.0130
  3054             9656             9651             CONDUIT           46.5    8.6370    0.0130
  3055             9657             9656             CONDUIT          200.6    2.5934    0.0130
  3060             9688             9651             CONDUIT          453.5    1.6540    0.0130
  3073             12482            9648             CONDUIT           25.5    1.1776    0.0130
  3080             9650             9638             CONDUIT          223.5    0.9845    0.0130
  3083             9638             9639             CONDUIT           53.8    0.7432    0.0130
  3089             9690             9689             CONDUIT          154.2    6.8230    0.0130
  3110             9685             9686             CONDUIT           84.7    0.8264    0.0130
  3144             4039             4040             CONDUIT           50.6    0.7108    0.0130
  3168             9649             15513            CONDUIT          275.0    6.9256    0.0130
  3176             NODE324          NODE327          CONDUIT          151.1    4.1664    0.0130
  404.1            NODE322          NODE323          CONDUIT           45.7    0.5034    0.0130
  404.2            NODE322          NODE323          CONDUIT           45.7    1.7293    0.0110
  427.1            9662             9657             CONDUIT          103.7    3.8602    0.0130
  427.2            9662             9657             CONDUIT          103.7    2.6490    0.0110
  432.1            9673             9675             CONDUIT           49.7    0.6031    0.0130
  432.2            9673             9675             CONDUIT           49.7    1.5140    0.0110
  433.1            9689             9682             CONDUIT          342.5    2.0443    0.0130
  433.2            9689             9682             CONDUIT          342.5    3.2027    0.0110
  434.1            9675             9679             CONDUIT          266.9    0.8467    0.0130
  434.2            9675             9679             CONDUIT          266.9    0.8362    0.0110
  436.1            9682             9685             CONDUIT          322.8    0.4957    0.0130
  436.2            9682             9685             CONDUIT          322.8    0.0812    0.0110
  437.1            9679             9682             CONDUIT           37.6    0.9035    0.0130
  437.2            9679             9682             CONDUIT           37.6    0.1860    0.0110
  438.1            4040             4063             CONDUIT          140.6    4.8048    0.0130
  438.2            4040             4063             CONDUIT          140.6    3.8052    0.0110
  441.1            NODE327          MH3-A            CONDUIT          161.9    0.8400    0.0130
  443.1            4587             4595             CONDUIT          195.4    1.9453    0.0130
  443.2            4587             4595             CONDUIT          195.4    2.0104    0.0110
  444.1            4582             4587             CONDUIT          275.2    0.4179    0.0130
  444.2            4582             4587             CONDUIT          275.2    1.0269    0.0110
  445.1            9382             4581             CONDUIT          236.2    0.1397    0.0130
  445.2            9382             4581             CONDUIT          236.2    1.3275    0.0110
  446.1            4561             4563             CONDUIT           51.7    0.5799    0.0130
  446.2            4561             4563             CONDUIT           51.7    1.1637    0.0110
  447.1            4595             4438             CONDUIT          147.2    1.8963    0.0130
  447.2            4595             4438             CONDUIT          147.2    2.1051    0.0110
  448.1            4599             4572             CONDUIT          243.8    1.9076    0.0130
  448.2            4599             4572             CONDUIT          243.8    1.9778    0.0110
  449.1            4572             4570             CONDUIT          226.8    1.8872    0.0130
  449.2            4572             4570             CONDUIT          226.8    2.0425    0.0110
  452.1            4095             4097             CONDUIT          400.2    1.4968    0.0130
  452.2            4095             4097             CONDUIT          400.2    0.8056    0.0110
  453.1            4097             4100             CONDUIT          402.5    3.4931    0.0130
  453.2            4097             4100             CONDUIT          402.5    3.3826    0.0110
  456.1            4100             4134             CONDUIT          430.2    0.9368    0.0130
  456.2            4100             4134             CONDUIT          430.2    1.7886    0.0110
  459.1            9819             9668             CONDUIT          159.0    9.2654    0.0130
  459.2            9819             9668             CONDUIT          159.0    8.3250    0.0110
  462.1            9834             9832             CONDUIT          194.9    2.6076    0.0130
  462.2            9834             9832             CONDUIT          194.9    1.7675    0.0110
  463.1            9843             9834             CONDUIT          348.1    3.0929    0.0130
  463.2            9843             9834             CONDUIT          348.1    3.6299    0.0110
  464.1            9821             9819             CONDUIT           83.8    6.2905    0.0130
  464.2            9821             9819             CONDUIT           83.8    5.3224    0.0110
  469.1            15407            MH3-A            CONDUIT           80.2    6.3944    0.0130
  475.1            13457            7792             CONDUIT           63.6    1.1329    0.0130
  475.2            13457            7792             CONDUIT           65.6    8.2515    0.0110
  484.1            4574             MH1-A            CONDUIT          109.0    2.2570    0.0130
  484.2            4574             MH1-A            CONDUIT          109.0    5.7221    0.0110
  486.1            4564             4565             CONDUIT           11.3    2.9206    0.0130
  486.2            4564             4565             CONDUIT           11.3    9.2843    0.0110
  492.1            9342             4592             CONDUIT          195.6    0.3527    0.0130
  492.2            9342             4592             CONDUIT          195.6    0.3062    0.0110
  494.1            6814             6815             CONDUIT           57.7    1.7333    0.0130
  494.2            6814             6815             CONDUIT           57.7    1.5617    0.0110
  498.1            6816             6817             CONDUIT          114.8    3.9850    0.0130
  498.2            6816             6817             CONDUIT          114.8    3.9335    0.0110
  499.1            6817             6820             CONDUIT          166.9    2.2298    0.0130
  499.2            6817             6820             CONDUIT          166.9    1.9222    0.0110
  501.1            6819             6820             CONDUIT           29.9    3.0129    0.0130
  501.2            6819             6820             CONDUIT           29.9    0.0937    0.0110
  505.1            15397            7785             CONDUIT           54.7    7.8795    0.0130
  505.2            15397            7785             CONDUIT           54.7    5.5749    0.0110
  514.1            9379             4582             CONDUIT          197.2    0.0254    0.0130
  514.2            9379             4582             CONDUIT          197.2    1.3104    0.0110
  518.1            9333             9334             CONDUIT           38.7    1.1109    0.0130
  518.2            9333             9334             CONDUIT           38.7    1.3383    0.0110
  519.1            MH3-F            12544            CONDUIT           20.3    0.0049    0.0130
  520.1            12560            12562            CONDUIT          167.3    3.0191    0.0130
  520.2            12560            12562            CONDUIT          167.3    2.3910    0.0110
  523.1            MH9-B            12565            CONDUIT           33.9    0.3248    0.0130
  524.1            NODE354          NODE355          CONDUIT           40.4    0.4699    0.0130
  525.1            NODE355          MH9-A            CONDUIT           13.8    0.7256    0.0130
  529.1            4581             9379             CONDUIT           88.8    0.3378    0.0130
  529.2            4581             9379             CONDUIT           88.8    0.3839    0.0110
  530.1            4565             4566             CONDUIT           54.1    0.4435    0.0130
  530.2            4565             4566             CONDUIT           54.1    0.4213    0.0110
  531.1            4438             4599             CONDUIT           58.6    1.8941    0.0130
  531.2            4438             4599             CONDUIT           58.6    1.7883    0.0110
  533.1            15513            15512            CONDUIT          104.0    0.9616    0.0130
  533.2            15513            15512            CONDUIT          104.0    2.6711    0.0110
  539.1            12544            MH3-A            CONDUIT           23.2   10.4231    0.0130
  540.1            MH3-E            NODE360          CONDUIT           71.1    5.9170    0.0130
  549.1            12565            NODE354          CONDUIT           24.8    2.5028    0.0130
  549.2            12565            NODE354          CONDUIT           24.8   10.8010    0.0300
  575.1            MH11-B           NODE406          CONDUIT           35.4   29.4751    0.0240
  6457             9381             9382             CONDUIT           40.0    2.0004    0.0130
  6499             4570             4569             CONDUIT           36.7    2.0187    0.0130
  6501             4566             4569             CONDUIT           34.0    0.5887    0.0130
  6509.1           MH3-A            4134             CONDUIT           47.9    0.9801    0.0130
  6509.2           4134             9629             CONDUIT           47.9    0.9809    0.0130
  6544             4569             4574             CONDUIT          144.7    2.2403    0.0130
  6550             4563             4565             CONDUIT          296.0    0.6217    0.0130
  716.1            12559            12562            CONDUIT          167.3    2.9473    0.0110
  717.1            NODE360          MH3-F            CONDUIT           61.2   12.2410    0.0110
  720.1            9329             9325             CONDUIT          148.0    0.2601    0.0110
  721.1            4570             4574             CONDUIT          175.0    1.5933    0.0110
  722.1            9381             4581             CONDUIT          238.0    1.2690    0.0110
  723.1            4039             4063             CONDUIT          220.0    3.1065    0.0110
  724.1            9806             9811             CONDUIT          165.0    3.8817    0.0110
  725.1            9373             9381             CONDUIT           88.0    1.0932    0.0110
  726.1            4562             4561             CONDUIT           23.0    7.3940    0.0110
  727.1            12562            NODE354          CONDUIT          265.0    2.1212    0.0110
  728.1            6828             7796             CONDUIT          362.0    2.2423    0.0110
  729.1            7792             7787             CONDUIT          395.0    6.9841    0.0110
  8191             9668             9669             CONDUIT            5.5    1.6274    0.0130
  8193             NODE321          9694             CONDUIT          179.9    1.4566    0.0130
  8195             9846             9843             CONDUIT          352.8    2.3643    0.0130
  8218             9832             9821             CONDUIT          355.7    2.4271    0.0130
  8222             9669             9664             CONDUIT          146.6    0.5320    0.0130
  8224             9693             9690             CONDUIT          259.1    4.4426    0.0130
  8225             9694             9693             CONDUIT           45.1    0.6211    0.0130
  8236             13149            15407            CONDUIT          275.8    4.0349    0.0130
  8791             13698            9664             CONDUIT          255.0    0.2705    0.0130
  9279             9811             9810             CONDUIT           73.4    2.1809    0.0130
  9282             9806             9810             CONDUIT           95.5    3.6687    0.0130
  9331             6828             6829             CONDUIT           30.5    0.9832    0.0130
  9334.1           7792             6828             CONDUIT          305.3    8.7148    0.0130
  9339             7799             7798             CONDUIT          204.2    1.4691    0.0130
  9340             7800             7799             CONDUIT           25.9    1.6622    0.0130
  9343             NODE339          7799             CONDUIT           27.6    2.3927    0.0130
  9659             NODE340          NODE322          CONDUIT           15.6    3.3937    0.0130
  9678             NODE345          4579             CONDUIT          193.2    1.5118    0.0130
  9679.1           4579             MH2-B            CONDUIT           41.9    1.4315    0.0130
  9680             4151             MH2-B            CONDUIT           17.6    1.3641    0.0130
  9681             MH2-A            4151             CONDUIT           23.1    3.5460    0.0130
  DITCH            NODE406          9849             CONDUIT          575.0    1.4450    0.0300
  LINK718          11531            MH14-A           CONDUIT          389.7    1.0931    0.0130
  XS1              XS2              OUTLET1          CONDUIT          424.0    0.4717    0.0400
  XS2.1            XS3              XS2              CONDUIT          510.0    0.3039    0.0400
  XS3.1            9625             XS3              CONDUIT          410.0    0.5976    0.0400
  299.1            MH13-C           MH13-D           WEIR        
  300.1            MH13-A           MH13-C           WEIR        
  301.1            MH13-B           MH13-A           WEIR        
  312.1            MH1-A            NODE395          WEIR        
  313.1            MH4-A            NODE396          WEIR        
  314.1            MH3-H            MH3-E            WEIR        
  315.1            MH15-A           MH15-B           WEIR        
  316.1            MH15-B           NODE397          WEIR        
  317.1            MH14-B           NODE398          WEIR        
  318.1            MH8-B            NODE399          WEIR        
  319.1            MH7-B            NODE400          WEIR        
  320.1            MH8-C            NODE401          WEIR        
  321.1            MH8-A            NODE402          WEIR        
  322.1            MH7-A            NODE403          WEIR        
  323.1            MH8-D            NODE404          WEIR        
  324.1            MH10-A           NODE405          WEIR        
  326.1            8000008          NODE407          WEIR        
  327.1            8000015          NODE408          WEIR        
  328.1            8000016          NODE409          WEIR        
  330.1            MH2-B            NODE410          WEIR        
  331.1            MH9-A            MH3-A            WEIR        
  332.1            MH3-C            MH3-A            WEIR        
  441.2            NODE327          MH3-A            WEIR        
  469.2            15407            MH3-A            WEIR        
  519.2            MH3-F            12544            WEIR        
  523.2            MH9-B            12565            WEIR        
  524.2            NODE354          NODE355          WEIR        
  525.2            NODE355          MH9-A            WEIR        
  539.2            12544            MH3-A            WEIR        
  540.2            MH3-E            NODE360          WEIR        
  575.2            MH11-B           NODE406          WEIR        
  714.1            MH3-D            MH3-A            WEIR        
  
  
  *********************
  Cross Section Summary
  *********************
                                        Full     Full     Hyd.     Max.   No. of     Full
  Conduit          Shape               Depth     Area     Rad.    Width  Barrels     Flow
  ---------------------------------------------------------------------------------------
  10484            CIRCULAR             2.50     4.91     0.63     2.50        1    38.67
  10486            CIRCULAR             2.50     4.91     0.63     2.50        1    44.95
  10487            CIRCULAR             2.50     4.91     0.63     2.50        1    52.15
  10488            CIRCULAR             2.50     4.91     0.63     2.50        1    39.37
  10489            CIRCULAR             2.50     4.91     0.63     2.50        1    46.81
  10491            CIRCULAR             2.50     4.91     0.63     2.50        1    62.24
  10493            CIRCULAR             2.00     3.14     0.50     2.00        1    16.45
  11320            CIRCULAR             1.50     1.77     0.38     1.50        1     6.42
  11321            CIRCULAR             1.50     1.77     0.38     1.50        1     8.15
  11325            CIRCULAR             1.50     1.77     0.38     1.50        1    12.93
  11328            CIRCULAR             1.50     1.77     0.38     1.50        1     4.57
  11330            CIRCULAR             1.75     2.41     0.44     1.75        1    20.30
  11333            CIRCULAR             1.75     2.41     0.44     1.75        1    47.47
  11334            CIRCULAR             1.75     2.41     0.44     1.75        1    31.44
  11336            CIRCULAR             1.75     2.41     0.44     1.75        1    36.97
  11338            CIRCULAR             1.75     2.41     0.44     1.75        1    47.52
  11339            CIRCULAR             3.50     9.62     0.88     3.50        1   364.18
  11340            CIRCULAR             1.25     1.23     0.31     1.25        1     6.10
  11341            CIRCULAR             1.25     1.23     0.31     1.25        1     2.06
  11342            CIRCULAR             0.33     0.09     0.08     0.33        1     0.54
  11343            CIRCULAR             1.75     2.41     0.44     1.75        1     9.80
  11344            CIRCULAR             1.75     2.41     0.44     1.75        1     9.60
  11345            CIRCULAR             2.00     3.14     0.50     2.00        1    12.40
  11346            CIRCULAR             2.00     3.14     0.50     2.00        1    13.62
  11347            CIRCULAR             1.25     1.23     0.31     1.25        1     7.94
  11348            CIRCULAR             1.25     1.23     0.31     1.25        1    11.57
  11456            CIRCULAR             6.00    28.27     1.50     6.00        1   164.66
  11457.1          CIRCULAR             6.00    28.27     1.50     6.00        1   322.00
  11526            CIRCULAR             1.25     1.23     0.31     1.25        1     9.10
  11527            CIRCULAR             1.25     1.23     0.31     1.25        1     6.77
  11530            CIRCULAR             1.00     0.79     0.25     1.00        1     8.15
  11645            CIRCULAR             1.50     1.77     0.38     1.50        1     9.80
  11646            CIRCULAR             1.75     2.41     0.44     1.75        1     8.09
  11647            CIRCULAR             1.75     2.41     0.44     1.75        1    10.76
  11736            CIRCULAR             1.00     0.79     0.25     1.00        1    13.74
  11996            CIRCULAR             1.25     1.23     0.31     1.25        1    22.28
  12078            CIRCULAR             1.25     1.23     0.31     1.25        1     4.61
  12084.1          CIRCULAR             2.50     4.91     0.63     2.50        1    94.71
  12085.1          CIRCULAR             1.00     0.79     0.25     1.00        1     6.37
  12151            CIRCULAR             2.25     3.98     0.56     2.25        1    52.03
  12152            CIRCULAR             1.75     2.41     0.44     1.75        1    15.72
  13647            CIRCULAR             1.50     1.77     0.38     1.50        1     8.05
  15118            CIRCULAR             1.50     1.77     0.38     1.50        1    12.86
  16491            CIRCULAR             4.50    15.90     1.13     4.50        1   220.42
  175              CIRCULAR             3.50     9.62     0.88     3.50        1     6.70
  178              CIRCULAR             3.50     9.62     0.88     3.50        1   107.21
  180              CIRCULAR             3.00     7.07     0.75     3.00        1   165.16
  181              CIRCULAR             3.00     7.07     0.75     3.00        1   144.56
  182              CIRCULAR             3.00     7.07     0.75     3.00        1   121.50
  184              CIRCULAR             3.00     7.07     0.75     3.00        1    44.49
  185              CIRCULAR             3.00     7.07     0.75     3.00        1   101.26
  186              CIRCULAR             3.00     7.07     0.75     3.00        1    67.07
  187              CIRCULAR             2.00     3.14     0.50     2.00        1    17.48
  188              CIRCULAR             2.00     3.14     0.50     2.00        1    17.54
  189              CIRCULAR             2.00     3.14     0.50     2.00        1    17.49
  190              CIRCULAR             2.00     3.14     0.50     2.00        1    17.53
  191              CIRCULAR             2.00     3.14     0.50     2.00        1    17.41
  192              CIRCULAR             2.00     3.14     0.50     2.00        1    17.67
  193              CIRCULAR             1.75     2.41     0.44     1.75        1    18.31
  206              CIRCULAR             1.75     2.41     0.44     1.75        1    11.31
  209              CIRCULAR             1.00     0.79     0.25     1.00        1     2.77
  211              CIRCULAR             1.00     0.79     0.25     1.00        1     2.93
  212              CIRCULAR             1.75     2.41     0.44     1.75        1    15.91
  213              CIRCULAR             2.00     3.14     0.50     2.00        1    21.44
  2959             CIRCULAR             1.75     2.41     0.44     1.75        1    73.35
  2963             CIRCULAR             1.50     1.77     0.38     1.50        1    21.28
  3045             CIRCULAR             4.50    15.90     1.13     4.50        1   363.94
  3047             CIRCULAR             4.50    15.90     1.13     4.50        1   204.62
  3048             CIRCULAR             4.50    15.90     1.13     4.50        1   405.26
  3052             CIRCULAR             2.75     5.94     0.69     2.75        1   110.93
  3054             CIRCULAR             2.75     5.94     0.69     2.75        1   155.43
  3055             CIRCULAR             2.75     5.94     0.69     2.75        1    85.17
  3060             CIRCULAR             5.00    19.63     1.25     5.00        1   334.95
  3073             CIRCULAR             1.50     1.77     0.38     1.50        1    11.40
  3080             CIRCULAR             4.50    15.90     1.13     4.50        1   195.12
  3083             CIRCULAR             4.50    15.90     1.13     4.50        1   169.53
  3089             CIRCULAR             3.00     7.07     0.75     3.00        1   174.22
  3110             CIRCULAR             4.50    15.90     1.13     4.50        1   178.76
  3144             CIRCULAR             1.75     2.41     0.44     1.75        1    13.36
  3168             CIRCULAR             4.50    15.90     1.13     4.50        1   517.51
  3176             CIRCULAR             1.75     2.41     0.44     1.75        1    32.34
  404.1            CIRCULAR             1.75     2.41     0.44     1.75        1    11.24
  404.2            TRAPEZOIDAL          1.00    54.00     0.52   104.00        1   619.65
  427.1            CIRCULAR             2.75     5.94     0.69     2.75        1   103.91
  427.2            TRAPEZOIDAL          1.00    54.00     0.52   104.00        1   766.91
  432.1            CIRCULAR             2.00     3.14     0.50     2.00        1    17.57
  432.2            TRAPEZOIDAL          1.00    54.00     0.52   104.00        1   579.78
  433.1            CIRCULAR             3.00     7.07     0.75     3.00        1    95.37
  433.2            TRAPEZOIDAL          1.00    54.00     0.52   104.00        1   843.26
  434.1            CIRCULAR             2.25     3.98     0.56     2.25        1    28.50
  434.2            TRAPEZOIDAL          1.00    54.00     0.52   104.00        1   430.88
  436.1            CIRCULAR             4.50    15.90     1.13     4.50        1   138.45
  436.2            TRAPEZOIDAL          1.00    54.00     0.52   104.00        1   134.24
  437.1            CIRCULAR             2.25     3.98     0.56     2.25        1    29.44
  437.2            TRAPEZOIDAL          1.00    54.00     0.52   104.00        1   203.23
  438.1            CIRCULAR             1.75     2.41     0.44     1.75        1    34.73
  438.2            TRAPEZOIDAL          1.00    54.00     0.52   104.00        1   919.16
  441.1            CIRCULAR             2.00     3.14     0.50     2.00        1    20.73
  443.1            CIRCULAR             3.00     7.07     0.75     3.00        1    93.03
  443.2            TRAPEZOIDAL          1.00    54.00     0.52   104.00        1   668.10
  444.1            CIRCULAR             2.50     4.91     0.63     2.50        1    26.51
  444.2            TRAPEZOIDAL          1.00    54.00     0.52   104.00        1   477.50
  445.1            CIRCULAR             1.50     1.77     0.38     1.50        1     3.93
  445.2            TRAPEZOIDAL          1.00    54.00     0.52   104.00        1   542.91
  446.1            CIRCULAR             1.50     1.77     0.38     1.50        1     8.00
  446.2            TRAPEZOIDAL          1.00    54.00     0.52   104.00        1   508.31
  447.1            CIRCULAR             3.00     7.07     0.75     3.00        1    91.85
  447.2            TRAPEZOIDAL          1.00    54.00     0.52   104.00        1   683.66
  448.1            CIRCULAR             3.00     7.07     0.75     3.00        1    92.12
  448.2            TRAPEZOIDAL          1.00    54.00     0.52   104.00        1   662.67
  449.1            CIRCULAR             3.00     7.07     0.75     3.00        1    91.63
  449.2            TRAPEZOIDAL          1.00    54.00     0.52   104.00        1   673.42
  452.1            CIRCULAR             1.50     1.77     0.38     1.50        1    12.85
  452.2            TRAPEZOIDAL          1.00    54.00     0.52   104.00        1   422.92
  453.1            CIRCULAR             1.50     1.77     0.38     1.50        1    19.63
  453.2            TRAPEZOIDAL          1.00    54.00     0.52   104.00        1   866.62
  456.1            CIRCULAR             1.50     1.77     0.38     1.50        1    10.17
  456.2            TRAPEZOIDAL          1.00    54.00     0.52   104.00        1   630.17
  459.1            CIRCULAR             2.00     3.14     0.50     2.00        1    68.86
  459.2            TRAPEZOIDAL          1.00    54.00     0.52   104.00        1  1359.56
  462.1            CIRCULAR             1.50     1.77     0.38     1.50        1    16.96
  462.2            TRAPEZOIDAL          1.00    54.00     0.52   104.00        1   626.45
  463.1            CIRCULAR             1.50     1.77     0.38     1.50        1    18.47
  463.2            TRAPEZOIDAL          1.00    54.00     0.52   104.00        1   897.75
  464.1            CIRCULAR             1.75     2.41     0.44     1.75        1    39.74
  464.2            TRAPEZOIDAL          1.00    54.00     0.52   104.00        1  1087.07
  469.1            CIRCULAR             1.50     1.77     0.38     1.50        1    26.56
  475.1            CIRCULAR             1.50     1.77     0.38     1.50        1    11.18
  475.2            TRAPEZOIDAL          1.00    54.00     0.52   104.00        1  1353.54
  484.1            CIRCULAR             3.50     9.62     0.88     3.50        1   151.15
  484.2            TRAPEZOIDAL          1.00    21.00     0.77    27.00        1   571.60
  486.1            CIRCULAR             2.50     4.91     0.63     2.50        1    70.10
  486.2            TRAPEZOIDAL          1.00    54.00     0.52   104.00        1  1435.75
  492.1            CIRCULAR             2.25     3.98     0.56     2.25        1    18.39
  492.2            TRAPEZOIDAL          1.00    54.00     0.52   104.00        1   260.73
  494.1            CIRCULAR             1.50     1.77     0.38     1.50        1    13.83
  494.2            TRAPEZOIDAL          1.00    54.00     0.52   104.00        1   588.84
  498.1            CIRCULAR             1.50     1.77     0.38     1.50        1    20.97
  498.2            TRAPEZOIDAL          1.00    54.00     0.52   104.00        1   934.53
  499.1            CIRCULAR             1.50     1.77     0.38     1.50        1    15.69
  499.2            TRAPEZOIDAL          1.00    54.00     0.52   104.00        1   653.28
  501.1            CIRCULAR             1.50     1.77     0.38     1.50        1    18.23
  501.2            TRAPEZOIDAL          1.00    54.00     0.52   104.00        1   144.23
  505.1            CIRCULAR             1.75     2.41     0.44     1.75        1    44.48
  505.2            TRAPEZOIDAL          1.00    54.00     0.52   104.00        1  1112.55
  514.1            CIRCULAR             2.00     3.14     0.50     2.00        1     3.60
  514.2            TRAPEZOIDAL          1.00    54.00     0.52   104.00        1   539.40
  518.1            CIRCULAR             1.50     1.77     0.38     1.50        1    11.07
  518.2            TRAPEZOIDAL          1.00    54.00     0.52   104.00        1   545.11
  519.1            CIRCULAR             1.50     1.77     0.38     1.50        1     0.74
  520.1            CIRCULAR             2.00     3.14     0.50     2.00        1    39.31
  520.2            TRAPEZOIDAL          1.00    54.00     0.52   104.00        1   728.61
  523.1            CIRCULAR             1.50     1.77     0.38     1.50        1     5.99
  524.1            CIRCULAR             1.50     1.77     0.38     1.50        1     7.20
  525.1            CIRCULAR             1.50     1.77     0.38     1.50        1     8.95
  529.1            CIRCULAR             2.00     3.14     0.50     2.00        1    13.15
  529.2            TRAPEZOIDAL          1.00    54.00     0.52   104.00        1   291.97
  530.1            CIRCULAR             2.25     3.98     0.56     2.25        1    20.62
  530.2            TRAPEZOIDAL          1.00    54.00     0.52   104.00        1   305.85
  531.1            CIRCULAR             3.00     7.07     0.75     3.00        1    91.79
  531.2            TRAPEZOIDAL          1.00    54.00     0.52   104.00        1   630.11
  533.1            CIRCULAR             4.50    15.90     1.13     4.50        1   192.83
  533.2            TRAPEZOIDAL          1.00    30.00     0.75    40.00        1   545.86
  539.1            CIRCULAR             1.00     0.79     0.25     1.00        1    11.50
  540.1            CIRCULAR             1.25     1.23     0.31     1.25        1    15.71
  549.1            CIRCULAR             1.00     0.79     0.25     1.00        1     5.64
  549.2            TRAPEZOIDAL          1.00    14.00     0.77    18.00        1   191.01
  575.1            CIRCULAR             1.00     0.79     0.25     1.00        1    10.48
  6457             CIRCULAR             1.25     1.23     0.31     1.25        1     9.14
  6499             CIRCULAR             3.00     7.07     0.75     3.00        1    94.77
  6501             CIRCULAR             2.25     3.98     0.56     2.25        1    23.76
  6509.1           CIRCULAR             3.00     7.07     0.75     3.00        1    66.03
  6509.2           CIRCULAR             3.00     7.07     0.75     3.00        1    66.06
  6544             CIRCULAR             3.50     9.62     0.88     3.50        1   150.59
  6550             CIRCULAR             2.25     3.98     0.56     2.25        1    24.42
  716.1            TRAPEZOIDAL          1.00    54.00     0.52   104.00        1   808.94
  717.1            TRAPEZOIDAL          1.00    54.00     0.52   104.00        1  1648.59
  720.1            TRAPEZOIDAL          1.00    54.00     0.52   104.00        1   240.33
  721.1            TRAPEZOIDAL          1.00    54.00     0.52   104.00        1   594.78
  722.1            TRAPEZOIDAL          1.00    54.00     0.52   104.00        1   530.81
  723.1            TRAPEZOIDAL          1.00    54.00     0.52   104.00        1   830.50
  724.1            TRAPEZOIDAL          1.00    54.00     0.52   104.00        1   928.36
  725.1            TRAPEZOIDAL          1.00    54.00     0.52   104.00        1   492.68
  726.1            TRAPEZOIDAL          1.00    54.00     0.52   104.00        1  1281.28
  727.1            TRAPEZOIDAL          1.00    54.00     0.52   104.00        1   686.28
  728.1            TRAPEZOIDAL          1.00    54.00     0.52   104.00        1   705.58
  729.1            TRAPEZOIDAL          1.00    54.00     0.52   104.00        1  1245.26
  8191             CIRCULAR             2.75     5.94     0.69     2.75        1    67.47
  8193             CIRCULAR             3.50     9.62     0.88     3.50        1   121.42
  8195             CIRCULAR             1.50     1.77     0.38     1.50        1    16.15
  8218             CIRCULAR             1.75     2.41     0.44     1.75        1    24.69
  8222             CIRCULAR             2.75     5.94     0.69     2.75        1    38.58
  8224             CIRCULAR             3.00     7.07     0.75     3.00        1   140.58
  8225             CIRCULAR             3.50     9.62     0.88     3.50        1    79.29
  8236             CIRCULAR             1.50     1.77     0.38     1.50        1    21.10
  8791             CIRCULAR             1.50     1.77     0.38     1.50        1     5.46
  9279             CIRCULAR             1.50     1.77     0.38     1.50        1    15.51
  9282             CIRCULAR             1.50     1.77     0.38     1.50        1    20.12
  9331             CIRCULAR             1.75     2.41     0.44     1.75        1    15.71
  9334.1           CIRCULAR             1.50     1.77     0.38     1.50        1    31.01
  9339             CIRCULAR             1.50     1.77     0.38     1.50        1    12.73
  9340             CIRCULAR             1.50     1.77     0.38     1.50        1    13.54
  9343             CIRCULAR             1.50     1.77     0.38     1.50        1    16.25
  9659             CIRCULAR             1.50     1.77     0.38     1.50        1    19.35
  9678             CIRCULAR             2.50     4.91     0.63     2.50        1    50.43
  9679.1           CIRCULAR             2.50     4.91     0.63     2.50        1    49.08
  9680             CIRCULAR             2.00     3.14     0.50     2.00        1    26.42
  9681             CIRCULAR             2.00     3.14     0.50     2.00        1    42.60
  DITCH            TRAPEZOIDAL          6.00   294.00     3.95    73.00        1  4372.51
  LINK718          CIRCULAR             2.00     3.14     0.50     2.00        1    23.65
  XS1              XS1                 40.93 77358.67    29.52  2600.43        1 1885506.85
  XS2.1            XS2.1               50.00 99955.01    33.84  2934.74        1 2141762.11
  XS3.1            XS3                 45.75 73831.29    27.37  2661.12        1 1925836.92
  
  
  
  ****************
  Transect Summary
  ****************

  Transect NS_L1
  Area:  
              0.0026     0.0081     0.0164     0.0277     0.0418 
              0.0630     0.0843     0.1056     0.1269     0.1481 
              0.1694     0.1907     0.2119     0.2332     0.2545 
              0.2758     0.2971     0.3183     0.3396     0.3609 
              0.3822     0.4035     0.4248     0.4460     0.4673 
              0.4886     0.5099     0.5312     0.5525     0.5738 
              0.5951     0.6164     0.6377     0.6590     0.6803 
              0.7016     0.7229     0.7442     0.7655     0.7868 
              0.8081     0.8295     0.8508     0.8721     0.8934 
              0.9147     0.9360     0.9574     0.9787     1.0000 
  Hrad:  
              0.0153     0.0278     0.0400     0.0521     0.0641 
              0.0705     0.0941     0.1175     0.1408     0.1640 
              0.1870     0.2099     0.2327     0.2554     0.2780 
              0.3004     0.3228     0.3450     0.3671     0.3891 
              0.4110     0.4327     0.4544     0.4759     0.4974 
              0.5187     0.5399     0.5610     0.5820     0.6029 
              0.6237     0.6444     0.6650     0.6855     0.7059 
              0.7262     0.7464     0.7664     0.7864     0.8063 
              0.8261     0.8458     0.8654     0.8849     0.9043 
              0.9236     0.9429     0.9620     0.9810     1.0000 
  Width: 
              0.1892     0.3243     0.4595     0.5946     0.7297 
              0.9974     0.9974     0.9975     0.9975     0.9976 
              0.9977     0.9977     0.9978     0.9978     0.9979 
              0.9980     0.9980     0.9981     0.9981     0.9982 
              0.9983     0.9983     0.9984     0.9984     0.9985 
              0.9986     0.9986     0.9987     0.9987     0.9988 
              0.9989     0.9989     0.9990     0.9990     0.9991 
              0.9992     0.9992     0.9993     0.9993     0.9994 
              0.9995     0.9995     0.9996     0.9996     0.9997 
              0.9998     0.9998     0.9999     0.9999     1.0000 

  Transect NS_L1.1
  Area:  
              0.0026     0.0081     0.0164     0.0277     0.0418 
              0.0630     0.0843     0.1056     0.1269     0.1481 
              0.1694     0.1907     0.2119     0.2332     0.2545 
              0.2758     0.2971     0.3183     0.3396     0.3609 
              0.3822     0.4035     0.4248     0.4460     0.4673 
              0.4886     0.5099     0.5312     0.5525     0.5738 
              0.5951     0.6164     0.6377     0.6590     0.6803 
              0.7016     0.7229     0.7442     0.7655     0.7868 
              0.8081     0.8295     0.8508     0.8721     0.8934 
              0.9147     0.9360     0.9574     0.9787     1.0000 
  Hrad:  
              0.0153     0.0278     0.0400     0.0521     0.0641 
              0.0705     0.0941     0.1175     0.1408     0.1640 
              0.1870     0.2099     0.2327     0.2554     0.2780 
              0.3004     0.3228     0.3450     0.3671     0.3891 
              0.4110     0.4327     0.4544     0.4759     0.4974 
              0.5187     0.5399     0.5610     0.5820     0.6029 
              0.6237     0.6444     0.6650     0.6855     0.7059 
              0.7262     0.7464     0.7664     0.7864     0.8063 
              0.8261     0.8458     0.8654     0.8849     0.9043 
              0.9236     0.9429     0.9620     0.9810     1.0000 
  Width: 
              0.1892     0.3243     0.4595     0.5946     0.7297 
              0.9974     0.9974     0.9975     0.9975     0.9976 
              0.9977     0.9977     0.9978     0.9978     0.9979 
              0.9980     0.9980     0.9981     0.9981     0.9982 
              0.9983     0.9983     0.9984     0.9984     0.9985 
              0.9986     0.9986     0.9987     0.9987     0.9988 
              0.9989     0.9989     0.9990     0.9990     0.9991 
              0.9992     0.9992     0.9993     0.9993     0.9994 
              0.9995     0.9995     0.9996     0.9996     0.9997 
              0.9998     0.9998     0.9999     0.9999     1.0000 

  Transect NS_L18
  Area:  
              0.0032     0.0095     0.0188     0.0312     0.0465 
              0.0677     0.0889     0.1100     0.1312     0.1524 
              0.1735     0.1947     0.2159     0.2371     0.2582 
              0.2794     0.3006     0.3218     0.3430     0.3641 
              0.3853     0.4065     0.4277     0.4489     0.4701 
              0.4912     0.5124     0.5336     0.5548     0.5760 
              0.5972     0.6184     0.6396     0.6608     0.6820 
              0.7032     0.7244     0.7456     0.7668     0.7879 
              0.8092     0.8304     0.8516     0.8728     0.8940 
              0.9152     0.9364     0.9576     0.9788     1.0000 
  Hrad:  
              0.0158     0.0283     0.0402     0.0520     0.0637 
              0.0738     0.0967     0.1194     0.1421     0.1647 
              0.1872     0.2096     0.2320     0.2542     0.2764 
              0.2984     0.3204     0.3423     0.3641     0.3858 
              0.4075     0.4290     0.4505     0.4718     0.4931 
              0.5144     0.5355     0.5565     0.5775     0.5984 
              0.6192     0.6400     0.6606     0.6812     0.7017 
              0.7221     0.7424     0.7627     0.7829     0.8030 
              0.8230     0.8430     0.8629     0.8827     0.9024 
              0.9221     0.9417     0.9612     0.9806     1.0000 
  Width: 
              0.2245     0.3673     0.5102     0.6531     0.7959 
              0.9980     0.9980     0.9981     0.9981     0.9982 
              0.9982     0.9983     0.9983     0.9984     0.9984 
              0.9985     0.9985     0.9985     0.9986     0.9986 
              0.9987     0.9987     0.9988     0.9988     0.9989 
              0.9989     0.9990     0.9990     0.9990     0.9991 
              0.9991     0.9992     0.9992     0.9993     0.9993 
              0.9994     0.9994     0.9995     0.9995     0.9995 
              0.9996     0.9996     0.9997     0.9997     0.9998 
              0.9998     0.9999     0.9999     1.0000     1.0000 

  Transect NS_L18.1
  Area:  
              0.0032     0.0095     0.0188     0.0312     0.0465 
              0.0677     0.0889     0.1100     0.1312     0.1524 
              0.1735     0.1947     0.2159     0.2371     0.2582 
              0.2794     0.3006     0.3218     0.3430     0.3641 
              0.3853     0.4065     0.4277     0.4489     0.4701 
              0.4912     0.5124     0.5336     0.5548     0.5760 
              0.5972     0.6184     0.6396     0.6608     0.6820 
              0.7032     0.7244     0.7456     0.7668     0.7879 
              0.8092     0.8304     0.8516     0.8728     0.8940 
              0.9152     0.9364     0.9576     0.9788     1.0000 
  Hrad:  
              0.0158     0.0283     0.0402     0.0520     0.0637 
              0.0738     0.0967     0.1194     0.1421     0.1647 
              0.1872     0.2096     0.2320     0.2542     0.2764 
              0.2984     0.3204     0.3423     0.3641     0.3858 
              0.4075     0.4290     0.4505     0.4718     0.4931 
              0.5144     0.5355     0.5565     0.5775     0.5984 
              0.6192     0.6400     0.6606     0.6812     0.7017 
              0.7221     0.7424     0.7627     0.7829     0.8030 
              0.8230     0.8430     0.8629     0.8827     0.9024 
              0.9221     0.9417     0.9612     0.9806     1.0000 
  Width: 
              0.2245     0.3673     0.5102     0.6531     0.7959 
              0.9980     0.9980     0.9981     0.9981     0.9982 
              0.9982     0.9983     0.9983     0.9984     0.9984 
              0.9985     0.9985     0.9985     0.9986     0.9986 
              0.9987     0.9987     0.9988     0.9988     0.9989 
              0.9989     0.9990     0.9990     0.9990     0.9991 
[...]
  Flow Classification Summary
  ***************************
  
  -------------------------------------------------------------------------------------
                      Adjusted    ---------- Fraction of Time in Flow Class ---------- 
                       /Actual         Up    Down  Sub   Sup   Up    Down  Norm  Inlet 
  Conduit               Length    Dry  Dry   Dry   Crit  Crit  Crit  Crit  Ltd   Ctrl  
  -------------------------------------------------------------------------------------
  10484                   1.00   0.00  0.00  0.00  0.03  0.96  0.00  0.00  0.00  0.00
  10486                   1.00   0.00  0.00  0.00  0.00  0.00  0.00  1.00  0.00  0.00
  10487                   1.00   0.00  0.00  0.00  0.00  0.00  0.00  1.00  0.00  0.00
  10488                   1.00   0.00  0.00  0.00  0.00  0.00  0.00  1.00  0.00  0.00
  10489                   1.00   0.00  0.00  0.00  0.00  0.00  0.00  1.00  0.00  0.00
  10491                   1.00   0.00  0.00  0.00  0.00  0.00  0.00  1.00  0.00  0.00
  10493                   1.00   0.00  0.00  0.00  0.00  0.00  0.00  1.00  0.00  0.00
  11320                   1.00   0.00  0.00  0.00  1.00  0.00  0.00  0.00  0.00  0.00
  11321                   1.00   0.00  0.00  0.00  1.00  0.00  0.00  0.00  0.96  0.00
  11325                   1.00   0.00  0.00  0.00  0.01  0.98  0.00  0.00  0.00  0.00
  11328                   1.00   0.00  0.00  0.00  1.00  0.00  0.00  0.00  0.00  0.00
  11330                   1.00   0.00  0.00  0.00  0.00  0.00  0.00  1.00  0.00  0.00
  11333                   1.00   0.00  0.00  0.00  0.00  0.00  0.00  1.00  0.00  0.00
  11334                   1.00   0.00  0.00  0.00  0.00  1.00  0.00  0.00  0.00  0.00
  11336                   1.00   0.00  0.00  0.00  0.00  1.00  0.00  0.00  0.74  0.00
  11338                   1.00   0.00  0.00  0.00  0.31  0.69  0.00  0.00  0.24  0.00
  11339                   1.04   0.00  0.00  0.00  0.98  0.01  0.00  0.00  0.72  0.00
  11340                   1.00   0.20  0.00  0.00  0.80  0.00  0.00  0.00  0.00  0.00
  11341                   1.00   0.00  0.02  0.00  0.98  0.00  0.00  0.00  0.00  0.00
  11342                   1.00   1.00  0.00  0.00  0.00  0.00  0.00  0.00  0.00  0.00
  11343                   1.00   0.00  0.00  0.00  1.00  0.00  0.00  0.00  0.96  0.00
  11344                   1.00   0.00  0.00  0.00  1.00  0.00  0.00  0.00  0.88  0.00
  11345                   1.00   0.00  0.00  0.00  1.00  0.00  0.00  0.00  0.19  0.00
  11346                   1.00   0.00  0.00  0.00  0.90  0.00  0.00  0.10  0.00  0.00
  11347                   1.00   0.00  0.00  0.00  1.00  0.00  0.00  0.00  0.08  0.00
  11348                   1.00   0.00  0.10  0.00  0.90  0.00  0.00  0.00  0.70  0.00
  11456                   1.00   0.00  0.00  0.00  0.99  0.00  0.00  0.01  0.07  0.00
  11457.1                 1.00   0.00  0.03  0.00  0.96  0.00  0.00  0.00  0.00  0.00
  11526                   1.00   0.01  0.00  0.00  0.00  0.00  0.00  0.99  0.00  0.00
  11527                   1.00   0.01  0.00  0.00  0.00  0.00  0.00  0.99  0.00  0.00
  11530                   1.00   0.01  0.00  0.00  0.00  0.00  0.00  0.99  0.00  0.00
  11645                   1.00   0.00  0.00  0.00  1.00  0.00  0.00  0.00  0.08  0.00
  11646                   1.00   0.00  0.00  0.00  1.00  0.00  0.00  0.00  0.88  0.00
  11647                   1.00   0.00  0.00  0.00  0.00  0.00  0.00  1.00  0.00  0.00
  11736                   1.64   0.00  0.00  0.00  0.00  0.00  0.00  1.00  0.00  0.00
  11996                   1.00   0.00  0.00  0.00  0.00  0.00  0.00  1.00  0.00  0.00
  12078                   1.00   0.00  0.00  0.00  0.00  0.00  0.00  1.00  0.00  0.00
  12084.1                 1.00   1.00  0.00  0.00  0.00  0.00  0.00  0.00  0.00  0.00
  12085.1                 1.00   0.00  0.00  0.00  0.00  0.00  0.00  1.00  0.00  0.00
  12151                   1.00   0.00  0.00  0.00  0.00  0.24  0.00  0.76  0.00  0.00
  12152                   1.00   0.00  0.01  0.00  0.00  0.00  0.99  0.00  0.00  0.00
  13647                   1.00   0.00  0.00  0.00  0.91  0.00  0.00  0.09  0.00  0.00
  15118                   1.07   0.00  0.00  0.00  0.96  0.03  0.00  0.00  0.19  0.00
  16491                   1.00   0.00  0.00  0.00  0.00  0.00  0.00  1.00  0.00  0.00
  175                     1.00   0.03  0.00  0.00  0.97  0.00  0.00  0.00  0.00  0.00
  178                     1.00   0.00  0.02  0.00  0.01  0.97  0.00  0.00  0.02  0.00
  180                     1.00   0.00  0.01  0.00  0.67  0.32  0.00  0.00  0.91  0.00
  181                     1.00   0.00  0.00  0.00  0.00  0.03  0.00  0.97  0.00  0.00
  182                     1.00   0.00  0.00  0.00  0.00  1.00  0.00  0.00  0.04  0.00
  184                     1.00   0.00  0.00  0.00  1.00  0.00  0.00  0.00  0.55  0.00
  185                     1.00   0.00  0.00  0.00  0.03  0.96  0.00  0.00  0.96  0.00
  186                     1.00   0.00  0.00  0.00  0.02  0.97  0.00  0.00  0.00  0.00
  187                     1.00   0.00  0.00  0.00  0.00  0.00  0.00  1.00  0.00  0.00
  188                     1.00   0.00  0.00  0.00  0.05  0.94  0.00  0.00  0.18  0.00
  189                     1.00   0.00  0.00  0.00  0.05  0.94  0.00  0.00  0.00  0.00
  190                     1.00   0.00  0.00  0.00  0.05  0.94  0.00  0.00  0.04  0.00
  191                     1.00   0.00  0.00  0.00  0.06  0.94  0.00  0.00  0.00  0.00
  192                     1.00   0.00  0.00  0.00  0.17  0.83  0.00  0.00  0.10  0.00
  193                     1.00   0.00  0.00  0.00  0.00  0.00  0.00  1.00  0.00  0.00
  206                     1.00   0.00  0.00  0.00  0.00  0.00  0.00  1.00  0.00  0.00
  209                     1.00   0.01  0.00  0.00  0.00  0.00  0.00  0.99  0.00  0.00
  211                     1.00   0.00  0.00  0.00  0.00  0.00  0.00  1.00  0.00  0.00
  212                     1.00   0.02  0.00  0.00  0.00  0.00  0.00  0.98  0.00  0.00
  213                     1.00   0.00  0.00  0.00  0.04  0.96  0.00  0.00  0.14  0.00
  2959                    1.00   0.01  0.00  0.00  0.00  0.00  0.00  0.99  0.00  0.00
  2963                    1.00   0.00  0.00  0.00  0.00  0.00  0.00  1.00  0.00  0.00
  3045                    1.00   0.00  0.00  0.00  0.01  0.99  0.00  0.00  0.28  0.00
  3047                    1.00   0.04  0.00  0.00  0.00  0.96  0.00  0.00  0.00  0.00
  3048                    1.00   0.00  0.00  0.00  0.02  0.98  0.00  0.00  0.16  0.00
  3052                    1.00   0.00  0.00  0.00  0.00  1.00  0.00  0.00  0.18  0.00
  3054                    1.00   0.00  0.00  0.00  0.00  0.00  0.00  1.00  0.00  0.00
  3055                    1.00   0.00  0.00  0.00  0.00  1.00  0.00  0.00  0.00  0.00
  3060                    1.00   0.00  0.00  0.00  1.00  0.00  0.00  0.00  0.97  0.00
  3073                    1.00   0.00  0.00  0.00  0.02  0.98  0.00  0.00  0.01  0.00
  3080                    1.00   0.00  0.04  0.00  0.00  0.96  0.00  0.00  0.04  0.00
  3083                    1.00   0.00  0.00  0.00  0.04  0.96  0.00  0.00  0.01  0.00
  3089                    1.00   0.00  0.00  0.00  0.01  0.98  0.00  0.00  0.96  0.00
  3110                    1.00   0.00  0.00  0.00  0.03  0.97  0.00  0.00  0.00  0.00
  3144                    1.00   0.00  0.00  0.00  0.03  0.96  0.00  0.00  0.00  0.00
  3168                    1.00   0.00  0.00  0.00  1.00  0.00  0.00  0.00  0.97  0.00
  3176                    1.00   0.00  0.00  0.00  0.00  0.00  0.00  1.00  0.00  0.00
  404.1                   1.00   0.00  0.00  0.00  0.00  0.00  0.00  1.00  0.00  0.00
  404.2                   1.00   1.00  0.00  0.00  0.00  0.00  0.00  0.00  0.00  0.00
  427.1                   1.00   0.00  0.00  0.00  0.00  1.00  0.00  0.00  0.74  0.00
  427.2                   1.00   1.00  0.00  0.00  0.00  0.00  0.00  0.00  0.00  0.00
  432.1                   1.00   0.00  0.00  0.00  0.00  0.00  0.00  1.00  0.00  0.00
  432.2                   1.00   1.00  0.00  0.00  0.00  0.00  0.00  0.00  0.00  0.00
  433.1                   1.00   0.00  0.00  0.00  0.00  0.00  0.00  1.00  0.00  0.00
  433.2                   1.00   1.00  0.00  0.00  0.00  0.00  0.00  0.00  0.00  0.00
  434.1                   1.00   0.00  0.00  0.00  0.05  0.95  0.00  0.00  0.96  0.00
  434.2                   1.00   1.00  0.00  0.00  0.00  0.00  0.00  0.00  0.00  0.00
  436.1                   1.00   0.00  0.00  0.00  0.06  0.94  0.00  0.00  0.12  0.00
  436.2                   1.00   1.00  0.00  0.00  0.00  0.00  0.00  0.00  0.00  0.00
  437.1                   1.00   0.00  0.00  0.00  0.00  0.00  0.00  1.00  0.00  0.00
  437.2                   1.00   1.00  0.00  0.00  0.00  0.00  0.00  0.00  0.00  0.00
  438.1                   1.00   0.00  0.00  0.00  0.01  0.99  0.00  0.00  0.03  0.00
  438.2                   1.00   1.00  0.00  0.00  0.00  0.00  0.00  0.00  0.00  0.00
  441.1                   1.00   0.00  0.00  0.00  0.00  0.00  0.00  1.00  0.00  0.00
  443.1                   1.00   0.00  0.00  0.00  0.03  0.97  0.00  0.00  0.22  0.00
  443.2                   1.00   1.00  0.00  0.00  0.00  0.00  0.00  0.00  0.00  0.00
  444.1                   1.00   0.00  0.00  0.00  0.00  0.00  0.00  1.00  0.00  0.00
  444.2                   1.00   1.00  0.00  0.00  0.00  0.00  0.00  0.00  0.00  0.00
  445.1                   1.00   0.00  0.00  0.00  0.00  0.00  0.00  1.00  0.00  0.00
  445.2                   1.00   1.00  0.00  0.00  0.00  0.00  0.00  0.00  0.00  0.00
  446.1                   1.00   0.00  0.00  0.00  0.00  0.00  0.00  1.00  0.00  0.00
  446.2                   1.00   1.00  0.00  0.00  0.00  0.00  0.00  0.00  0.00  0.00
  447.1                   1.00   0.00  0.00  0.00  0.02  0.97  0.00  0.00  0.19  0.00
  447.2                   1.00   1.00  0.00  0.00  0.00  0.00  0.00  0.00  0.00  0.00
  448.1                   1.00   0.00  0.00  0.00  0.02  0.98  0.00  0.00  0.20  0.00
  448.2                   1.00   1.00  0.00  0.00  0.00  0.00  0.00  0.00  0.00  0.00
  449.1                   1.00   0.00  0.00  0.00  0.03  0.97  0.00  0.00  0.95  0.00
  449.2                   1.00   1.00  0.00  0.00  0.00  0.00  0.00  0.00  0.00  0.00
  452.1                   1.00   0.00  0.00  0.00  0.02  0.98  0.00  0.00  0.01  0.00
  452.2                   1.00   1.00  0.00  0.00  0.00  0.00  0.00  0.00  0.00  0.00
  453.1                   1.00   0.00  0.00  0.00  0.03  0.97  0.00  0.00  0.96  0.00
  453.2                   1.00   1.00  0.00  0.00  0.00  0.00  0.00  0.00  0.00  0.00
  456.1                   1.00   0.00  0.00  0.00  0.58  0.27  0.00  0.15  0.67  0.00
  456.2                   1.00   1.00  0.00  0.00  0.00  0.00  0.00  0.00  0.00  0.00
  459.1                   1.00   0.00  0.00  0.00  0.00  1.00  0.00  0.00  0.96  0.00
  459.2                   1.00   1.00  0.00  0.00  0.00  0.00  0.00  0.00  0.00  0.00
  462.1                   1.00   0.00  0.00  0.00  0.01  0.99  0.00  0.00  0.27  0.00
  462.2                   1.00   1.00  0.00  0.00  0.00  0.00  0.00  0.00  0.00  0.00
  463.1                   1.00   0.00  0.00  0.00  0.03  0.97  0.00  0.00  0.96  0.00
  463.2                   1.00   1.00  0.00  0.00  0.00  0.00  0.00  0.00  0.00  0.00
  464.1                   1.00   0.00  0.00  0.00  0.00  1.00  0.00  0.00  0.18  0.00
  464.2                   1.00   1.00  0.00  0.00  0.00  0.00  0.00  0.00  0.00  0.00
  469.1                   1.00   0.00  0.00  0.00  0.00  0.00  0.00  1.00  0.00  0.00
  475.1                   1.00   0.00  0.00  0.00  0.00  0.00  0.00  1.00  0.00  0.00
  475.2                   1.00   1.00  0.00  0.00  0.00  0.00  0.00  0.00  0.00  0.00
  484.1                   1.00   0.00  0.00  0.00  1.00  0.00  0.00  0.00  0.96  0.00
  484.2                   1.00   1.00  0.00  0.00  0.00  0.00  0.00  0.00  0.00  0.00
  486.1                   2.06   0.00  0.00  0.00  0.00  0.00  0.00  1.00  0.00  0.00
  486.2                   2.71   1.00  0.00  0.00  0.00  0.00  0.00  0.00  0.00  0.00
  492.1                   1.00   0.00  0.00  0.00  0.00  0.00  0.00  1.00  0.00  0.00
  492.2                   1.00   1.00  0.00  0.00  0.00  0.00  0.00  0.00  0.00  0.00
  494.1                   1.00   0.00  0.00  0.00  0.03  0.97  0.00  0.00  0.22  0.00
  494.2                   1.00   1.00  0.00  0.00  0.00  0.00  0.00  0.00  0.00  0.00
  498.1                   1.00   0.00  0.00  0.00  0.00  0.99  0.00  0.00  0.96  0.00
  498.2                   1.00   1.00  0.00  0.00  0.00  0.00  0.00  0.00  0.00  0.00
  499.1                   1.00   0.00  0.00  0.00  0.03  0.96  0.00  0.00  0.96  0.00
  499.2                   1.00   1.00  0.00  0.00  0.00  0.00  0.00  0.00  0.00  0.00
  501.1                   1.00   0.00  0.00  0.00  0.04  0.96  0.00  0.00  0.96  0.00
  501.2                   1.00   1.00  0.00  0.00  0.00  0.00  0.00  0.00  0.00  0.00
  505.1                   1.00   0.00  0.00  0.00  0.00  1.00  0.00  0.00  0.54  0.00
  505.2                   1.00   1.00  0.00  0.00  0.00  0.00  0.00  0.00  0.00  0.00
  514.1                   1.00   0.00  0.00  0.00  0.00  0.00  0.00  1.00  0.00  0.00
  514.2                   1.00   1.00  0.00  0.00  0.00  0.00  0.00  0.00  0.00  0.00
  518.1                   1.00   0.00  0.00  0.00  0.00  0.00  0.00  1.00  0.00  0.00
  518.2                   1.00   1.00  0.00  0.00  0.00  0.00  0.00  0.00  0.00  0.00
  519.1                   1.00   0.00  0.00  0.00  1.00  0.00  0.00  0.00  0.00  0.00
  520.1                   1.00   0.00  0.00  0.00  0.00  0.00  0.00  1.00  0.00  0.00
  520.2                   1.00   1.00  0.00  0.00  0.00  0.00  0.00  0.00  0.00  0.00
  523.1                   1.00   0.00  0.00  0.00  1.00  0.00  0.00  0.00  0.04  0.00
  524.1                   1.00   0.00  0.00  0.00  0.85  0.00  0.00  0.15  0.00  0.00
  525.1                   1.00   0.00  0.00  0.00  0.90  0.10  0.00  0.00  0.00  0.00
  529.1                   1.00   0.00  0.00  0.00  1.00  0.00  0.00  0.00  0.96  0.00
  529.2                   1.00   1.00  0.00  0.00  0.00  0.00  0.00  0.00  0.00  0.00
  530.1                   1.00   0.00  0.00  0.00  1.00  0.00  0.00  0.00  0.21  0.00
  530.2                   1.00   1.00  0.00  0.00  0.00  0.00  0.00  0.00  0.00  0.00
  531.1                   1.00   0.00  0.00  0.00  0.03  0.97  0.00  0.00  0.20  0.00
  531.2                   1.00   1.00  0.00  0.00  0.00  0.00  0.00  0.00  0.00  0.00
  533.1                   1.00   0.00  0.04  0.00  0.00  0.96  0.00  0.00  0.00  0.00
  533.2                   1.00   1.00  0.00  0.00  0.00  0.00  0.00  0.00  0.00  0.00
  539.1                   1.00   1.00  0.00  0.00  0.00  0.00  0.00  0.00  0.00  0.00
  540.1                   1.00   0.00  0.00  0.00  0.00  0.29  0.00  0.70  0.00  0.00
  549.1                   1.00   0.09  0.00  0.00  0.00  0.00  0.00  0.91  0.00  0.00
  549.2                   1.00   1.00  0.00  0.00  0.00  0.00  0.00  0.00  0.00  0.00
  575.1                   1.00   0.12  0.00  0.00  0.00  0.88  0.00  0.00  0.00  0.00
  6457                    1.00   0.01  0.00  0.00  0.00  0.00  0.00  0.99  0.00  0.00
  6499                    1.00   0.00  0.00  0.00  0.00  0.00  0.00  1.00  0.00  0.00
  6501                    1.00   0.00  0.00  0.00  0.00  0.00  0.00  1.00  0.00  0.00
  6509.1                  1.00   0.00  0.05  0.00  0.95  0.00  0.00  0.00  0.01  0.00
  6509.2                  1.00   0.00  0.00  0.00  0.95  0.00  0.00  0.05  0.00  0.00
  6544                    1.00   0.00  0.00  0.00  0.01  0.99  0.00  0.00  0.08  0.00
  6550                    1.00   0.00  0.00  0.00  0.92  0.00  0.00  0.07  0.69  0.00
  716.1                   1.00   1.00  0.00  0.00  0.00  0.00  0.00  0.00  0.00  0.00
  717.1                   1.00   1.00  0.00  0.00  0.00  0.00  0.00  0.00  0.00  0.00
  720.1                   1.00   1.00  0.00  0.00  0.00  0.00  0.00  0.00  0.00  0.00
  721.1                   1.00   1.00  0.00  0.00  0.00  0.00  0.00  0.00  0.00  0.00
  722.1                   1.00   1.00  0.00  0.00  0.00  0.00  0.00  0.00  0.00  0.00
  723.1                   1.00   1.00  0.00  0.00  0.00  0.00  0.00  0.00  0.00  0.00
  724.1                   1.00   1.00  0.00  0.00  0.00  0.00  0.00  0.00  0.00  0.00
  725.1                   1.00   1.00  0.00  0.00  0.00  0.00  0.00  0.00  0.00  0.00
  726.1                   1.21   1.00  0.00  0.00  0.00  0.00  0.00  0.00  0.00  0.00
  727.1                   1.00   1.00  0.00  0.00  0.00  0.00  0.00  0.00  0.00  0.00
  728.1                   1.00   1.00  0.00  0.00  0.00  0.00  0.00  0.00  0.00  0.00
  729.1                   1.00   1.00  0.00  0.00  0.00  0.00  0.00  0.00  0.00  0.00
  8191                    3.76   0.00  0.00  0.00  1.00  0.00  0.00  0.00  0.16  0.00
  8193                    1.00   0.00  0.00  0.00  0.04  0.96  0.00  0.00  0.97  0.00
  8195                    1.00   0.00  0.00  0.00  0.03  0.97  0.00  0.00  0.96  0.00
  8218                    1.00   0.00  0.00  0.00  0.01  0.99  0.00  0.00  0.00  0.00
  8222                    1.00   0.00  0.00  0.00  0.00  0.00  0.00  1.00  0.00  0.00
  8224                    1.00   0.00  0.00  0.00  0.00  0.99  0.00  0.00  0.12  0.00
  8225                    1.00   0.00  0.00  0.00  0.00  0.00  0.00  1.00  0.00  0.00
  8236                    1.00   0.00  0.00  0.00  0.00  1.00  0.00  0.00  0.02  0.00
  8791                    1.00   0.00  0.00  0.00  1.00  0.00  0.00  0.00  0.92  0.00
  9279                    1.00   0.00  1.00  0.00  0.00  0.00  0.00  0.00  0.00  0.00
  9282                    1.00   0.00  0.00  0.00  0.00  0.00  0.00  1.00  0.00  0.00
  9331                    1.00   0.00  0.00  0.00  0.92  0.06  0.00  0.02  0.77  0.00
  9334.1                  1.00   0.00  0.00  0.00  0.00  0.98  0.00  0.02  0.81  0.00
  9339                    1.00   0.00  0.00  0.00  0.05  0.94  0.00  0.00  0.96  0.00
  9340                    1.00   0.00  0.00  0.00  0.02  0.98  0.00  0.00  0.09  0.00
  9343                    1.00   1.00  0.00  0.00  0.00  0.00  0.00  0.00  0.00  0.00
  9659                    1.15   0.00  0.00  0.00  1.00  0.00  0.00  0.00  0.97  0.00
  9678                    1.00   0.00  0.00  0.00  0.89  0.10  0.00  0.00  0.90  0.00
  9679.1                  1.00   0.00  0.00  0.00  0.94  0.05  0.00  0.00  0.13  0.00
  9680                    1.00   0.00  0.00  0.00  0.93  0.00  0.00  0.07  0.01  0.00
  9681                    1.00   0.00  0.00  0.00  0.00  0.00  0.00  1.00  0.00  0.00
  DITCH                   1.00   0.12  0.00  0.00  0.00  0.00  0.00  0.88  0.00  0.00
  LINK718                 1.00   0.00  0.00  0.00  0.91  0.09  0.00  0.00  0.85  0.00
  XS1                     1.00   0.06  0.00  0.00  0.94  0.00  0.00  0.00  0.00  0.00
  XS2.1                   1.00   0.05  0.00  0.00  0.95  0.00  0.00  0.00  0.00  0.00
  XS3.1                   1.00   0.05  0.00  0.00  0.95  0.00  0.00  0.00  0.74  0.00
  
  
  *************************
  Conduit Surcharge Summary
  *************************
  
  ----------------------------------------------------------------------------
                                                           Hours        Hours 
                         --------- Hours Full --------   Above Full   Capacity
  Conduit                Both Ends  Upstream  Dnstream   Normal Flow   Limited
  ----------------------------------------------------------------------------
  11339                       0.01      0.01     26.83      0.01         0.01
  11340                       2.63      2.63     14.61      0.01         0.01
  11341                      31.60     31.60     31.83      0.01         0.01
  11347                      33.98     33.98     34.72      0.01         0.01
  519.1                      35.17     35.17     35.17      0.01        11.82
  523.1                      35.73     35.73     35.82      0.01         0.01
  525.1                       0.01      0.01      0.50      0.01         0.01
  

  Analysis begun on:  Fri Nov 29 10:11:08 2019
  Analysis ended on:  Fri Nov 29 10:11:22 2019
  Total elapsed time: 00:00:14