
  EPA STORM WATER MANAGEMENT MODEL - VERSION 5.1 (Build 5.1.013)
  --------------------------------------------------------------

  Scenario Run :  BASE 
  
  WARNING 04: minimum elevation drop used for Conduit 106A-173/106A-166
  WARNING 04: minimum elevation drop used for Conduit 118A-002_CM_WETWELL
  WARNING 04: minimum elevation drop used for Conduit 134A-001_EP_WETWELL
  WARNING 04: minimum elevation drop used for Conduit 177A-015/177A-003
  WARNING 04: minimum elevation drop used for Conduit 330A-101/330A-147
  WARNING 04: minimum elevation drop used for Conduit 331A-100/331A-099
  WARNING 04: minimum elevation drop used for Conduit 334A-062/334A-061
  WARNING 04: minimum elevation drop used for Conduit 339A-002C_339A-002G
  WARNING 04: minimum elevation drop used for Conduit 339A-002F_339A-002H
  WARNING 04: minimum elevation drop used for Conduit 339A-002_OFALL_LA
  WARNING 04: minimum elevation drop used for Conduit 351A-001/172A-179
  WARNING 04: minimum elevation drop used for Conduit 351A-136/351A-112
  WARNING 04: minimum elevation drop used for Conduit 356A-032/356A-031
  WARNING 04: minimum elevation drop used for Conduit 366A-001/366A-343
  WARNING 04: minimum elevation drop used for Conduit 366A-291/366A-284
  WARNING 04: minimum elevation drop used for Conduit 369A-212/369A-211
  WARNING 04: minimum elevation drop used for Conduit 370A-001/370A-205
  WARNING 04: minimum elevation drop used for Conduit 371A-230B_371A-230D
  WARNING 04: minimum elevation drop used for Conduit 371A-230C_371A-230E
  WARNING 04: minimum elevation drop used for Conduit 371A-358B_371A-358E
  WARNING 04: minimum elevation drop used for Conduit 371A-358C_371A-358F
  WARNING 04: minimum elevation drop used for Conduit 371A-358D_371A-358G
  WARNING 04: minimum elevation drop used for Conduit 396A-020/396A-019
  WARNING 04: minimum elevation drop used for Conduit 398A-004/398A-003
  WARNING 04: minimum elevation drop used for Conduit BS_WETWELL_BS_OVERFLOWSTRUCT
  WARNING 04: minimum elevation drop used for Conduit PERRY-01_PERRY-04
  WARNING 04: minimum elevation drop used for Conduit PERRY-02_PERRY-05
  WARNING 04: minimum elevation drop used for Conduit PERRY-03_PERRY-06
  WARNING 02: maximum depth increased for Node 266A-VP12
  
  **********************           Volume        Volume
  Rainfall Dependent I/I        acre-feet      10^6 gal
  **********************        ---------     ---------
  Sewershed Rainfall ......      8505.317      2771.585
  RDII Produced ...........       105.938        34.521
  RDII Ratio ..............         0.012
  
  
  *********************************************************
  NOTE: The summary statistics displayed in this report are
  based on results found at every computational time step,  
  not just on results from each reporting time step.
  *********************************************************
  
  ****************
  Analysis Options
  ****************
  Flow Units ............... MGD
  Process Models:
    Rainfall/Runoff ........ YES
    RDII ................... YES
    Snowmelt ............... NO
    Groundwater ............ NO
    Flow Routing ........... YES
    Ponding Allowed ........ NO
    Water Quality .......... NO
  Infiltration Method ...... HORTON
  Flow Routing Method ...... DYNWAVE
  Surcharge Method ......... EXTRAN
  Starting Date ............ 01/01/2007 00:00:00
  Ending Date .............. 01/04/2007 23:00:00
  Antecedent Dry Days ...... 5.0
  Report Time Step ......... 00:05:00
  Wet Time Step ............ 00:05:00
  Dry Time Step ............ 00:05:00
  Routing Time Step ........ 30.00 sec
  Variable Time Step ....... YES
  Maximum Trials ........... 8
  Number of Threads ........ 1
  Head Tolerance ........... 0.001000 ft
  
  
  **************************        Volume         Depth
  Runoff Quantity Continuity     acre-feet        inches
  **************************     ---------       -------
  Total Precipitation ......      8565.093         5.764
  Evaporation Loss .........         0.000         0.000
  Infiltration Loss ........      8135.907         5.475
  Surface Runoff ...........       430.009         0.289
  Final Storage ............         0.009         0.000
  Continuity Error (%) .....        -0.010
  
  
  **************************        Volume        Volume
  Flow Routing Continuity        acre-feet      10^6 gal
  **************************     ---------     ---------
  Dry Weather Inflow .......        88.418        28.812
  Wet Weather Inflow .......       429.789       140.053
  Groundwater Inflow .......         0.000         0.000
  RDII Inflow ..............       105.941        34.523
  External Inflow ..........       247.312        80.590
  External Outflow .........       644.593       210.050
  Flooding Loss ............       287.791        93.781
  Evaporation Loss .........         0.000         0.000
  Exfiltration Loss ........         0.000         0.000
  Initial Stored Volume ....         2.873         0.936
  Final Stored Volume ......        23.557         7.676
  Continuity Error (%) .....        -9.334
  
  
  *************************
  Highest Continuity Errors
  *************************
  Node 163A-242 (42.46%)
  Node KS_WETWELL (-41.30%)
  Node 356A-047 (11.77%)
  Node WTL-001 (10.65%)
  Node 106A-001 (-9.84%)
  
  
  ***************************
  Time-Step Critical Elements
  ***************************
  Link 151A-004/151A-003 (6.39%)
  Link 356A-039/356A-037 (3.01%)
  Link 106A-027/106A-026 (1.77%)
  Link 106A-026/106A-023 (1.61%)
  Link 134A-001_EP_WETWELL (1.56%)
  
  
  ********************************
  Highest Flow Instability Indexes
  ********************************
  Link 356A-SB17/356A-003 (109)
  Link 371A-230B_371A-230D (80)
  Link 371A-358D_371A-358G (75)
  Link 371A-230C_371A-230E (74)
  Link 371A-358B_371A-358E (64)
  
  
  *************************
  Routing Time Step Summary
  *************************
  Minimum Time Step           :     0.55 sec
  Average Time Step           :     7.70 sec
  Maximum Time Step           :    30.00 sec
  Percent in Steady State     :    -0.00
  Average Iterations per Step :     7.98
  Percent Not Converging      :    99.36
  
  
  ***************************
  Subcatchment Runoff Summary
  ***************************
  
  ------------------------------------------------------------------------------------------------------------------------------
                            Total      Total      Total      Total     Imperv       Perv      Total       Total     Peak  Runoff
                           Precip      Runon       Evap      Infil     Runoff     Runoff     Runoff      Runoff   Runoff   Coeff
  Subcatchment                 in         in         in         in         in         in         in    10^6 gal      MGD
  ------------------------------------------------------------------------------------------------------------------------------
  SUB-100E-AC                5.76       0.00       0.00       5.48       0.29       0.00       0.29        0.32     4.68   0.050
  SUB-100E-AD                5.76       0.00       0.00       5.48       0.29       0.00       0.29        0.30     4.31   0.050
  SUB-100E-AE                5.76       0.00       0.00       5.48       0.29       0.00       0.29        0.24     4.14   0.050
  SUB-100E-AF                5.76       0.00       0.00       5.48       0.29       0.00       0.29        0.40     7.17   0.050
  SUB-100E-AG                5.76       0.00       0.00       5.48       0.29       0.00       0.29        0.14     2.66   0.050
  SUB-100E-AH                5.76       0.00       0.00       5.48       0.29       0.00       0.29        0.23     3.47   0.050
  SUB-100E-AI                5.76       0.00       0.00       5.21       0.29       0.27       0.56        0.48     6.88   0.096
  SUB-100E-AJ                5.76       0.00       0.00       5.48       0.29       0.00       0.29        0.07     1.25   0.050
  SUB-100E-AK                5.76       0.00       0.00       5.48       0.29       0.00       0.29        0.06     0.89   0.050
  SUB-100E-AL                5.76       0.00       0.00       5.48       0.29       0.00       0.29        0.19     3.68   0.050
  SUB-100E-AM                5.76       0.00       0.00       5.48       0.29       0.00       0.29        0.61     9.98   0.050
  SUB-100E-AN                5.76       0.00       0.00       5.47       0.29       0.00       0.29        0.09     1.92   0.050
  SUB-100E-AO                5.76       0.00       0.00       5.48       0.29       0.00       0.29        0.34     6.88   0.050
  SUB-100E-B                 5.76       0.00       0.00       5.48       0.29       0.00       0.29        0.15     2.82   0.050
  SUB-100E-C                 5.76       0.00       0.00       5.48       0.29       0.00       0.29        0.18     3.50   0.050
  SUB-100E-D                 5.76       0.00       0.00       5.48       0.29       0.00       0.29        0.24     4.57   0.050
  SUB-100E-E                 5.76       0.00       0.00       5.48       0.29       0.00       0.29        0.45     6.56   0.050
  SUB-100E-F                 5.76       0.00       0.00       5.48       0.29       0.00       0.29        0.34     4.83   0.050
  SUB-100E-G                 5.76       0.00       0.00       5.48       0.29       0.00       0.29        0.98    15.30   0.050
  SUB-100E-H                 5.76       0.00       0.00       5.48       0.29       0.00       0.29        0.29     3.82   0.050
  SUB-100E-I                 5.76       0.00       0.00       5.48       0.29       0.00       0.29        0.71     9.91   0.050
  SUB-100E-J                 5.76       0.00       0.00       5.48       0.29       0.00       0.29        0.73    10.48   0.050
  SUB-100E-K                 5.76       0.00       0.00       5.48       0.29       0.00       0.29        0.52     8.82   0.050
  SUB-100E-L                 5.76       0.00       0.00       5.48       0.29       0.00       0.29        0.55     7.67   0.050
  SUB-100E-M                 5.76       0.00       0.00       5.48       0.29       0.00       0.29        0.07     1.26   0.050
  SUB-100E-N                 5.76       0.00       0.00       5.48       0.29       0.00       0.29        0.26     5.01   0.050
  SUB-100E-O                 5.76       0.00       0.00       5.48       0.29       0.00       0.29        0.06     1.09   0.050
  SUB-100E-P                 5.76       0.00       0.00       5.48       0.29       0.00       0.29        0.40     5.50   0.050
  SUB-100E-Q                 5.76       0.00       0.00       5.48       0.29       0.00       0.29        0.74    10.21   0.050
  SUB-100E-R                 5.76       0.00       0.00       5.48       0.29       0.00       0.29        0.12     2.39   0.050
  SUB-100E-S                 5.76       0.00       0.00       5.48       0.29       0.00       0.29        0.07     1.21   0.050
  SUB-100E-T                 5.76       0.00       0.00       5.48       0.29       0.00       0.29        0.07     1.31   0.050
  SUB-100E-U                 5.76       0.00       0.00       5.48       0.29       0.00       0.29        0.08     1.61   0.050
  SUB-100E-V                 5.76       0.00       0.00       5.48       0.29       0.00       0.29        0.21     3.29   0.050
  SUB-100E-W                 5.76       0.00       0.00       5.48       0.29       0.00       0.29        0.06     1.06   0.050
  SUB-100E-X                 5.76       0.00       0.00       5.48       0.29       0.00       0.29        0.25     4.74   0.050
  SUB-100E-Y                 5.76       0.00       0.00       5.48       0.29       0.00       0.29        0.34     5.30   0.050
  SUB-100E-Z                 5.76       0.00       0.00       5.48       0.29       0.00       0.29        0.32     4.02   0.050
  SUB-100W-A                 5.76       0.00       0.00       5.48       0.29       0.00       0.29        0.71    11.38   0.050
  SUB-100W-AA                5.76       0.00       0.00       5.48       0.29       0.00       0.29        0.51     7.24   0.050
  SUB-100W-AB                5.76       0.00       0.00       5.48       0.29       0.00       0.29        0.40     6.91   0.050
  SUB-100W-AC                5.76       0.00       0.00       5.48       0.29       0.00       0.29        0.39     4.43   0.050
  SUB-100W-AD                5.76       0.00       0.00       5.48       0.29       0.00       0.29        0.56     9.57   0.050
  SUB-100W-AE                5.76       0.00       0.00       5.48       0.29       0.00       0.29        0.83    11.82   0.050
  SUB-100W-AF                5.76       0.00       0.00       5.48       0.29       0.00       0.29        0.78    12.12   0.050
  SUB-100W-AG                5.76       0.00       0.00       5.48       0.29       0.00       0.29        0.83    11.98   0.050
  SUB-100W-AH                5.76       0.00       0.00       5.48       0.29       0.00       0.29        0.31     5.41   0.050
  SUB-100W-AI                5.76       0.00       0.00       5.48       0.29       0.00       0.29        1.08    14.48   0.050
  SUB-100W-AJ                5.76       0.00       0.00       5.48       0.29       0.00       0.29        0.63     9.16   0.050
  SUB-100W-AK                5.76       0.00       0.00       5.48       0.29       0.00       0.29        0.95    17.98   0.050
  SUB-100W-AL                5.76       0.00       0.00       5.48       0.29       0.00       0.29        0.73    12.15   0.050
  SUB-100W-AM                5.76       0.00       0.00       5.48       0.29       0.00       0.29        0.72    12.18   0.050
  SUB-100W-AN                5.76       0.00       0.00       5.48       0.29       0.00       0.29        0.86    11.64   0.050
  SUB-100W-AO                5.76       0.00       0.00       5.48       0.29       0.00       0.29        0.97    16.44   0.050
  SUB-100W-AP                5.76       0.00       0.00       5.48       0.29       0.00       0.29        0.42     6.71   0.050
  SUB-100W-AQ                5.76       0.00       0.00       5.48       0.29       0.00       0.29        0.65    10.83   0.050
  SUB-100W-AR                5.76       0.00       0.00       5.48       0.29       0.00       0.29        0.11     2.21   0.050
  SUB-100W-AS                5.76       0.00       0.00       5.48       0.29       0.00       0.29        0.38     7.27   0.050
  SUB-100W-AT                5.76       0.00       0.00       5.48       0.29       0.00       0.29        0.76    11.61   0.050
  SUB-100W-AU                5.76       0.00       0.00       5.48       0.29       0.00       0.29        0.26     4.26   0.050
  SUB-100W-AV                5.76       0.00       0.00       5.48       0.29       0.00       0.29        0.61     9.35   0.050
  SUB-100W-AW                5.76       0.00       0.00       5.48       0.29       0.00       0.29        0.47     7.60   0.050
  SUB-100W-AX                5.76       0.00       0.00       5.48       0.29       0.00       0.29        0.59     8.32   0.050
  SUB-100W-AY                5.76       0.00       0.00       5.48       0.29       0.00       0.29        0.72    10.83   0.050
  SUB-100W-AZ                5.76       0.00       0.00       5.48       0.29       0.00       0.29        0.33     5.28   0.050
  SUB-100W-B                 5.76       0.00       0.00       5.48       0.29       0.00       0.29        0.44     7.01   0.050
  SUB-100W-BA                5.76       0.00       0.00       5.47       0.29       0.00       0.29        0.09     1.91   0.050
  SUB-100W-BB                5.76       0.00       0.00       5.48       0.29       0.00       0.29        0.64    11.26   0.050
  SUB-100W-BC                5.76       0.00       0.00       5.48       0.29       0.00       0.29        0.24     1.98   0.050
  SUB-100W-BD                5.76       0.00       0.00       5.48       0.29       0.00       0.29        0.33     6.00   0.050
  SUB-100W-BE                5.76       0.00       0.00       5.48       0.29       0.00       0.29        0.24     3.72   0.050
  SUB-100W-BF                5.76       0.00       0.00       5.48       0.29       0.00       0.29        0.21     3.37   0.050
  SUB-100W-BG                5.76       0.00       0.00       5.48       0.29       0.00       0.29        0.40     5.88   0.050
  SUB-100W-C                 5.76       0.00       0.00       5.48       0.29       0.00       0.29        0.54    10.26   0.050
  SUB-100W-D                 5.76       0.00       0.00       5.48       0.29       0.00       0.29        0.27     2.62   0.050
  SUB-100W-E                 5.76       0.00       0.00       5.48       0.29       0.00       0.29        0.36     1.84   0.050
  SUB-100W-F                 5.76       0.00       0.00       5.48       0.29       0.00       0.29        0.12     1.61   0.050
  SUB-100W-G                 5.76       0.00       0.00       5.48       0.29       0.00       0.29        0.31     1.98   0.050
  SUB-100W-H                 5.76       0.00       0.00       5.48       0.29       0.00       0.29        0.63    11.06   0.050
  SUB-100W-I                 5.76       0.00       0.00       5.48       0.29       0.00       0.29        0.35     5.32   0.050
  SUB-100W-J                 5.76       0.00       0.00       5.48       0.29       0.00       0.29        0.46     3.29   0.050
  SUB-100W-K                 5.76       0.00       0.00       5.48       0.29       0.00       0.29        0.55     4.31   0.050
  SUB-100W-L                 5.76       0.00       0.00       5.48       0.29       0.00       0.29        0.51     5.62   0.050
  SUB-100W-M                 5.76       0.00       0.00       5.48       0.29       0.00       0.29        0.75     8.51   0.050
  SUB-100W-N                 5.76       0.00       0.00       5.48       0.29       0.00       0.29        0.75     9.67   0.050
  SUB-100W-O                 5.76       0.00       0.00       5.48       0.29       0.00       0.29        0.26     2.15   0.050
  SUB-100W-P                 5.76       0.00       0.00       5.48       0.29       0.00       0.29        0.66     5.85   0.050
  SUB-100W-Q                 5.76       0.00       0.00       5.48       0.29       0.00       0.29        0.62     9.71   0.050
  SUB-100W-R                 5.76       0.00       0.00       5.48       0.29       0.00       0.29        1.04    10.29   0.050
  SUB-100W-S                 5.76       0.00       0.00       5.48       0.29       0.00       0.29        0.43     3.29   0.050
  SUB-100W-T                 5.76       0.00       0.00       5.48       0.29       0.00       0.29        0.66     6.52   0.050
  SUB-100W-U                 5.76       0.00       0.00       5.48       0.29       0.00       0.29        0.81    11.45   0.050
  SUB-100W-V                 5.76       0.00       0.00       5.48       0.29       0.00       0.29        0.24     3.79   0.050
  SUB-100W-W                 5.76       0.00       0.00       5.48       0.29       0.00       0.29        0.56     9.15   0.050
  SUB-100W-X                 5.76       0.00       0.00       5.48       0.29       0.00       0.29        0.20     3.07   0.050
  SUB-100W-Y                 5.76       0.00       0.00       5.48       0.29       0.00       0.29        0.39     6.52   0.050
  SUB-100W-Z                 5.76       0.00       0.00       5.48       0.29       0.00       0.29        0.84    14.44   0.050
  SUB-10A                    5.76       0.00       0.00       5.48       0.29       0.00       0.29        0.08     1.53   0.050
  SUB-10B                    5.76       0.00       0.00       5.48       0.29       0.00       0.29        0.24     2.81   0.050
  SUB-10C                    5.76       0.00       0.00       5.48       0.29       0.00       0.29        0.76     8.73   0.050
  SUB-10D                    5.76       0.00       0.00       5.48       0.29       0.00       0.29        0.36     4.03   0.050
  SUB-12                     5.76       0.00       0.00       5.48       0.29       0.00       0.29        0.67    11.41   0.050
  SUB-14                     5.76       0.00       0.00       5.48       0.29       0.00       0.29        0.80    13.73   0.050
  SUB-16                     5.76       0.00       0.00       5.48       0.29       0.00       0.29        0.64    11.05   0.050
  SUB-24A                    5.76       0.00       0.00       5.48       0.29       0.00       0.29        1.03    14.49   0.050
  SUB-24B                    5.76       0.00       0.00       5.48       0.29       0.00       0.29        0.54     3.36   0.050
  SUB-24C                    5.76       0.00       0.00       5.48       0.29       0.00       0.29        0.35     2.24   0.050
  SUB-24D                    5.76       0.00       0.00       5.48       0.29       0.00       0.29        0.52     5.45   0.050
  SUB-24E                    5.76       0.00       0.00       5.48       0.29       0.00       0.29        0.13     0.73   0.050
  SUB-26                     5.76       0.00       0.00       5.48       0.29       0.00       0.29        1.17    20.08   0.050
  SUB-28                     5.76       0.00       0.00       5.48       0.29       0.00       0.29        0.63     9.72   0.050
  SUB-30                     5.76       0.00       0.00       5.48       0.29       0.00       0.29        0.56    10.35   0.050
  SUB-32A                    5.76       0.00       0.00       5.48       0.29       0.00       0.29        0.12     1.98   0.050
  SUB-32B                    5.76       0.00       0.00       5.48       0.29       0.00       0.29        0.09     1.80   0.050
  SUB-32C                    5.76       0.00       0.00       5.48       0.29       0.00       0.29        0.98    13.20   0.050
  SUB-34                     5.76       0.00       0.00       5.48       0.29       0.00       0.29        0.19     3.92   0.050
  SUB-36                     5.76       0.00       0.00       5.48       0.29       0.00       0.29        0.51     8.95   0.050
  SUB-38                     5.76       0.00       0.00       5.48       0.29       0.00       0.29        0.44     8.27   0.050
  SUB-40A                    5.76       0.00       0.00       5.48       0.29       0.00       0.29        0.66    12.21   0.050
  SUB-40B                    5.76       0.00       0.00       5.48       0.29       0.00       0.29        0.19     3.49   0.050
  SUB-40C                    5.76       0.00       0.00       5.48       0.29       0.00       0.29        0.45     7.72   0.050
  SUB-40D                    5.76       0.00       0.00       5.48       0.29       0.00       0.29        0.56     8.76   0.050
  SUB-40E                    5.76       0.00       0.00       5.48       0.29       0.00       0.29        0.30     5.38   0.050
  SUB-40F                    5.76       0.00       0.00       5.48       0.29       0.00       0.29        0.43     8.12   0.050
  SUB-40G                    5.76       0.00       0.00       5.48       0.29       0.00       0.29        0.46     9.06   0.050
  SUB-42                     5.76       0.00       0.00       5.48       0.29       0.00       0.29        0.04     0.70   0.050
  SUB-44A                    5.76       0.00       0.00       5.48       0.29       0.00       0.29        0.09     0.73   0.050
  SUB-44B                    5.76       0.00       0.00       5.48       0.29       0.00       0.29        0.56     4.49   0.050
  SUB-44C                    5.76       0.00       0.00       5.48       0.29       0.00       0.29        0.15     1.78   0.050
  SUB-44D                    5.76       0.00       0.00       5.48       0.29       0.00       0.29        0.82     9.88   0.050
  SUB-44E                    5.76       0.00       0.00       5.48       0.29       0.00       0.29        0.83    12.70   0.050
  SUB-46                     5.76       0.00       0.00       5.48       0.29       0.00       0.29        0.25     4.81   0.050
  SUB-48                     5.76       0.00       0.00       5.47       0.29       0.00       0.29        0.07     1.47   0.050
  SUB-50                     5.76       0.00       0.00       5.48       0.29       0.00       0.29        0.48     9.75   0.050
  SUB-52A                    5.76       0.00       0.00       5.48       0.29       0.00       0.29        0.84    11.36   0.050
  SUB-52B                    5.76       0.00       0.00       5.48       0.29       0.00       0.29        0.29     5.50   0.050
  SUB-52C                    5.76       0.00       0.00       5.48       0.29       0.00       0.29        0.83    16.08   0.050
  SUB-52D                    5.76       0.00       0.00       5.48       0.29       0.00       0.29        0.48     9.49   0.050
  SUB-52E                    5.76       0.00       0.00       5.48       0.29       0.00       0.29        0.37     7.44   0.050
  SUB-52F                    5.76       0.00       0.00       5.48       0.29       0.00       0.29        0.97    16.12   0.050
  SUB-52G                    5.76       0.00       0.00       5.47       0.29       0.00       0.29        0.12     2.57   0.050
  SUB-52H                    5.76       0.00       0.00       5.48       0.29       0.00       0.29        0.67    12.73   0.050
  SUB-52I                    5.76       0.00       0.00       5.48       0.29       0.00       0.29        0.48     8.42   0.050
  SUB-52J                    5.76       0.00       0.00       5.48       0.29       0.00       0.29        0.77    14.37   0.050
  SUB-54                     5.76       0.00       0.00       5.48       0.29       0.00       0.29        0.18     3.72   0.050
  SUB-56A                    5.76       0.00       0.00       5.48       0.29       0.00       0.29        0.51     9.32   0.050
  SUB-56B                    5.76       0.00       0.00       5.48       0.29       0.00       0.29        0.41     7.68   0.050
  SUB-56C                    5.76       0.00       0.00       5.48       0.29       0.00       0.29        0.95    16.36   0.050
  SUB-58                     5.76       0.00       0.00       5.48       0.29       0.00       0.29        0.98    16.51   0.050
  SUB-60A                    5.76       0.00       0.00       5.48       0.29       0.00       0.29        0.60     9.23   0.050
  SUB-60B                    5.76       0.00       0.00       5.48       0.29       0.00       0.29        0.52     8.62   0.050
  SUB-60C                    5.76       0.00       0.00       5.48       0.29       0.00       0.29        0.50     7.95   0.050
  SUB-62                     5.76       0.00       0.00       5.48       0.29       0.00       0.29        0.61    11.40   0.050
  SUB-64                     5.76       0.00       0.00       5.48       0.29       0.00       0.29        0.33     6.48   0.050
  SUB-66                     5.76       0.00       0.00       5.48       0.29       0.00       0.29        0.13     2.44   0.050
  SUB-68                     5.76       0.00       0.00       5.48       0.29       0.00       0.29        0.14     2.17   0.050
  SUB-70                     5.76       0.00       0.00       5.48       0.29       0.00       0.29        0.74    11.66   0.050
  SUB-72                     5.76       0.00       0.00       5.48       0.29       0.00       0.29        0.57    11.26   0.050
  SUB-74                     5.76       0.00       0.00       5.48       0.29       0.00       0.29        0.32     6.21   0.050
  SUB-76                     5.76       0.00       0.00       5.48       0.29       0.00       0.29        0.07     1.48   0.050
  SUB-78                     5.76       0.00       0.00       5.48       0.29       0.00       0.29        0.99    14.58   0.050
  SUB-80                     5.76       0.00       0.00       5.48       0.29       0.00       0.29        0.57    11.06   0.050
  SUB-82                     5.76       0.00       0.00       5.48       0.29       0.00       0.29        0.28     4.53   0.050
  SUB-84A                    5.76       0.00       0.00       5.48       0.29       0.00       0.29        0.25     2.79   0.050
  SUB-84B                    5.76       0.00       0.00       5.48       0.29       0.00       0.29        0.72    11.97   0.050
  SUB-84C                    5.76       0.00       0.00       5.48       0.29       0.00       0.29        0.84    11.59   0.050
  SUB-84D                    5.76       0.00       0.00       5.48       0.29       0.00       0.29        0.71    10.66   0.050
  SUB-84E                    5.76       0.00       0.00       5.48       0.29       0.00       0.29        0.83    15.11   0.050
  SUB-84F                    5.76       0.00       0.00       5.48       0.29       0.00       0.29        0.24     4.19   0.050
  SUB-84G                    5.76       0.00       0.00       5.48       0.29       0.00       0.29        0.93     8.53   0.050
  SUB-84H                    5.76       0.00       0.00       5.48       0.29       0.00       0.29        0.12     1.09   0.050
  SUB-84I                    5.76       0.00       0.00       5.48       0.29       0.00       0.29        0.30     2.96   0.050
  SUB-84J                    5.76       0.00       0.00       5.48       0.29       0.00       0.29        0.24     2.32   0.050
  SUB-84K                    5.76       0.00       0.00       5.48       0.29       0.00       0.29        0.26     2.47   0.050
  SUB-84L                    5.76       0.00       0.00       5.48       0.29       0.00       0.29        0.46     8.71   0.050
  SUB-84M                    5.76       0.00       0.00       5.48       0.29       0.00       0.29        0.93    10.89   0.050
  SUB-84N                    5.76       0.00       0.00       5.48       0.29       0.00       0.29        0.32     3.35   0.050
  SUB-84O                    5.76       0.00       0.00       5.48       0.29       0.00       0.29        0.30     2.88   0.050
  SUB-84P                    5.76       0.00       0.00       5.48       0.29       0.00       0.29        0.34     6.55   0.050
  SUB-84Q                    5.76       0.00       0.00       5.48       0.29       0.00       0.29        0.96     8.21   0.050
  SUB-84R                    5.76       0.00       0.00       5.48       0.29       0.00       0.29        0.35     3.31   0.050
  SUB-84S                    5.76       0.00       0.00       5.48       0.29       0.00       0.29        0.41     7.43   0.050
  SUB-86                     5.76       0.00       0.00       5.48       0.29       0.00       0.29        0.79    10.39   0.050
  SUB-88                     5.76       0.00       0.00       5.48       0.29       0.00       0.29        0.17     2.79   0.050
  SUB-90                     5.76       0.00       0.00       5.48       0.29       0.00       0.29        0.18     3.45   0.050
  SUB-92A                    5.76       0.00       0.00       5.48       0.29       0.00       0.29        0.56     9.18   0.050
  SUB-92B                    5.76       0.00       0.00       5.48       0.29       0.00       0.29        0.98    18.82   0.050
  SUB-92C                    5.76       0.00       0.00       5.48       0.29       0.00       0.29        0.66    12.15   0.050
  SUB-92D                    5.76       0.00       0.00       5.48       0.29       0.00       0.29        0.35     6.84   0.050
  SUB-92E                    5.76       0.00       0.00       5.48       0.29       0.00       0.29        0.22     4.34   0.050
  SUB-92F                    5.76       0.00       0.00       5.48       0.29       0.00       0.29        0.15     2.99   0.050
  SUB-92G                    5.76       0.00       0.00       5.48       0.29       0.00       0.29        0.66    12.16   0.050
  SUB-92H                    5.76       0.00       0.00       5.48       0.29       0.00       0.29        0.78    12.17   0.050
  SUB-92I                    5.76       0.00       0.00       5.48       0.29       0.00       0.29        0.47     8.47   0.050
  SUB-92J                    5.76       0.00       0.00       5.48       0.29       0.00       0.29        0.23     4.37   0.050
  SUB-92K                    5.76       0.00       0.00       5.48       0.29       0.00       0.29        0.21     4.00   0.050
  SUB-92L                    5.76       0.00       0.00       5.48       0.29       0.00       0.29        0.55     9.16   0.050
  SUB-92M                    5.76       0.00       0.00       5.48       0.29       0.00       0.29        0.41     7.67   0.050
  SUB-92N                    5.76       0.00       0.00       5.48       0.29       0.00       0.29        0.69    13.34   0.050
  SUB-92O                    5.76       0.00       0.00       5.48       0.29       0.00       0.29        0.76    13.90   0.050
  SUB-92P                    5.76       0.00       0.00       5.48       0.29       0.00       0.29        0.36     5.98   0.050
  SUB-94                     5.76       0.00       0.00       5.48       0.29       0.00       0.29        0.03     0.72   0.050
  SUB-96A                    5.76       0.00       0.00       5.48       0.29       0.00       0.29        0.40     7.55   0.050
  SUB-96AA                   5.76       0.00       0.00       5.48       0.29       0.00       0.29        1.03    18.48   0.050
  SUB-96AB                   5.76       0.00       0.00       5.48       0.29       0.00       0.29        0.52     9.47   0.050
  SUB-96AC                   5.76       0.00       0.00       5.48       0.29       0.00       0.29        0.68    12.73   0.050
  SUB-96AD                   5.76       0.00       0.00       5.48       0.29       0.00       0.29        0.36     7.02   0.050
  SUB-96AE                   5.76       0.00       0.00       5.48       0.29       0.00       0.29        0.20     3.78   0.050
  SUB-96AF                   5.76       0.00       0.00       5.48       0.29       0.00       0.29        0.61    10.40   0.050
  SUB-96AG                   5.76       0.00       0.00       5.48       0.29       0.00       0.29        0.75    14.67   0.050
  SUB-96AH                   5.76       0.00       0.00       5.48       0.29       0.00       0.29        0.65    12.03   0.050
  SUB-96AI                   5.76       0.00       0.00       5.48       0.29       0.00       0.29        0.18     3.68   0.050
  SUB-96AJ                   5.76       0.00       0.00       5.48       0.29       0.00       0.29        0.55    10.78   0.050
  SUB-96B                    5.76       0.00       0.00       5.48       0.29       0.00       0.29        0.62    10.67   0.050
  SUB-96C                    5.76       0.00       0.00       5.48       0.29       0.00       0.29        0.80    14.94   0.050
  SUB-96D                    5.76       0.00       0.00       5.48       0.29       0.00       0.29        1.31    23.01   0.050
  SUB-96E                    5.76       0.00       0.00       5.48       0.29       0.00       0.29        0.69    12.42   0.050
  SUB-96F                    5.76       0.00       0.00       5.48       0.29       0.00       0.29        0.98    17.00   0.050
  SUB-96G                    5.76       0.00       0.00       5.48       0.29       0.00       0.29        0.66    12.51   0.050
  SUB-96H                    5.76       0.00       0.00       5.48       0.29       0.00       0.29        0.13     2.57   0.050
  SUB-96I                    5.76       0.00       0.00       5.48       0.29       0.00       0.29        0.72    12.53   0.050
  SUB-96J                    5.76       0.00       0.00       5.48       0.29       0.00       0.29        1.08    20.34   0.050
  SUB-96K                    5.76       0.00       0.00       5.48       0.29       0.00       0.29        0.92    15.57   0.050
  SUB-96L                    5.76       0.00       0.00       5.48       0.29       0.00       0.29        0.30     5.75   0.050
  SUB-96M                    5.76       0.00       0.00       5.48       0.29       0.00       0.29        0.71    12.65   0.050
  SUB-96N                    5.76       0.00       0.00       5.48       0.29       0.00       0.29        0.73    14.25   0.050
  SUB-96O                    5.76       0.00       0.00       5.48       0.29       0.00       0.29        0.46     8.35   0.050
  SUB-96P                    5.76       0.00       0.00       5.48       0.29       0.00       0.29        0.63    12.46   0.050
  SUB-96Q                    5.76       0.00       0.00       5.48       0.29       0.00       0.29        0.73    11.98   0.050
  SUB-96R                    5.76       0.00       0.00       5.48       0.29       0.00       0.29        0.29     4.97   0.050
  SUB-96S                    5.76       0.00       0.00       5.48       0.29       0.00       0.29        1.37    24.47   0.050
  SUB-96T                    5.76       0.00       0.00       5.48       0.29       0.00       0.29        0.73    14.27   0.050
  SUB-96U                    5.76       0.00       0.00       5.48       0.29       0.00       0.29        0.60    11.74   0.050
  SUB-96V                    5.76       0.00       0.00       5.48       0.29       0.00       0.29        0.57    11.13   0.050
  SUB-96W                    5.76       0.00       0.00       5.48       0.29       0.00       0.29        0.52    10.15   0.050
  SUB-96X                    5.76       0.00       0.00       5.48       0.29       0.00       0.29        1.03    18.99   0.050
  SUB-96Y                    5.76       0.00       0.00       5.48       0.29       0.00       0.29        0.76    13.98   0.050
  SUB-96Z                    5.76       0.00       0.00       5.48       0.29       0.00       0.29        0.36     6.67   0.050
  SUB-98E-A                  5.76       0.00       0.00       5.48       0.29       0.00       0.29        0.79    13.89   0.050
  SUB-98E-AA                 5.76       0.00       0.00       5.48       0.29       0.00       0.29        0.87    15.63   0.050
  SUB-98E-AB                 5.76       0.00       0.00       5.48       0.29       0.00       0.29        0.83    12.80   0.050
  SUB-98E-AC                 5.76       0.00       0.00       5.48       0.29       0.00       0.29        0.56     9.90   0.050
  SUB-98E-B                  5.76       0.00       0.00       5.48       0.29       0.00       0.29        0.40     6.87   0.050
  SUB-98E-C                  5.76       0.00       0.00       5.48       0.29       0.00       0.29        0.69    11.19   0.050
  SUB-98E-D                  5.76       0.00       0.00       5.48       0.29       0.00       0.29        1.07    18.70   0.050
  SUB-98E-E                  5.76       0.00       0.00       5.48       0.29       0.00       0.29        0.61     8.45   0.050
  SUB-98E-F                  5.76       0.00       0.00       5.48       0.29       0.00       0.29        1.02    13.65   0.050
  SUB-98E-G                  5.76       0.00       0.00       5.48       0.29       0.00       0.29        1.01    14.58   0.050
  SUB-98E-H                  5.76       0.00       0.00       5.48       0.29       0.00       0.29        0.55     8.63   0.050
  SUB-98E-I                  5.76       0.00       0.00       5.48       0.29       0.00       0.29        0.68    10.63   0.050
  SUB-98E-J                  5.76       0.00       0.00       5.48       0.29       0.00       0.29        0.80    13.39   0.050
  SUB-98E-K                  5.76       0.00       0.00       5.48       0.29       0.00       0.29        0.56     8.88   0.050
  SUB-98E-L                  5.76       0.00       0.00       5.48       0.29       0.00       0.29        0.45     8.51   0.050
  SUB-98E-M                  5.76       0.00       0.00       5.48       0.29       0.00       0.29        0.23     4.48   0.050
  SUB-98E-N                  5.76       0.00       0.00       5.48       0.29       0.00       0.29        0.58     9.67   0.050
  SUB-98E-O                  5.76       0.00       0.00       5.48       0.29       0.00       0.29        0.62    11.67   0.050
  SUB-98E-P                  5.76       0.00       0.00       5.48       0.29       0.00       0.29        0.23     4.27   0.050
  SUB-98E-Q                  5.76       0.00       0.00       5.48       0.29       0.00       0.29        0.99    16.99   0.050
  SUB-98E-R                  5.76       0.00       0.00       5.48       0.29       0.00       0.29        0.40     7.16   0.050
  SUB-98E-S                  5.76       0.00       0.00       5.48       0.29       0.00       0.29        0.08     1.60   0.050
  SUB-98E-T                  5.76       0.00       0.00       5.48       0.29       0.00       0.29        0.10     2.05   0.050
  SUB-98E-U                  5.76       0.00       0.00       5.48       0.29       0.00       0.29        0.22     4.17   0.050
  SUB-98E-V                  5.76       0.00       0.00       5.48       0.29       0.00       0.29        0.37     7.21   0.050
  SUB-98E-W                  5.76       0.00       0.00       5.48       0.29       0.00       0.29        0.25     4.69   0.050
  SUB-98E-X                  5.76       0.00       0.00       5.47       0.29       0.00       0.29        0.09     1.84   0.050
  SUB-98E-Y                  5.76       0.00       0.00       5.48       0.29       0.00       0.29        0.45     9.32   0.050
  SUB-98E-Z                  5.76       0.00       0.00       5.48       0.29       0.00       0.29        0.33     5.85   0.050
  SUB-98W-A                  5.76       0.00       0.00       5.48       0.29       0.00       0.29        0.74    12.34   0.050
  SUB-98W-B                  5.76       0.00       0.00       5.48       0.29       0.00       0.29        0.06     1.11   0.050
  SUB-98W-C                  5.76       0.00       0.00       5.48       0.29       0.00       0.29        0.69    11.08   0.050
  SUB-98W-D                  5.76       0.00       0.00       5.48       0.29       0.00       0.29        0.50     7.27   0.050
  SUB-98W-E                  5.76       0.00       0.00       5.48       0.29       0.00       0.29        0.43     7.14   0.050
  SUB-98W-F                  5.76       0.00       0.00       5.48       0.29       0.00       0.29        0.22     3.84   0.050
  SUB-98W-G                  5.76       0.00       0.00       5.48       0.29       0.00       0.29        0.53     8.14   0.050
  SUB-98W-I                  5.76       0.00       0.00       5.48       0.29       0.00       0.29        0.75    14.69   0.050
  SUB-98W-J                  5.76       0.00       0.00       5.48       0.29       0.00       0.29        0.52     9.00   0.050
  SUB-98W-K                  5.76       0.00       0.00       5.48       0.29       0.00       0.29        0.67    12.91   0.050
  SUB-98W-L                  5.76       0.00       0.00       5.48       0.29       0.00       0.29        0.67     9.34   0.050
  SUB-98W-M                  5.76       0.00       0.00       5.48       0.29       0.00       0.29        0.62    10.57   0.050
  
  
  ******************
  Node Depth Summary
  ******************
  
  ---------------------------------------------------------------------------------
                                 Average  Maximum  Maximum  Time of Max    Reported
                                   Depth    Depth      HGL   Occurrence   Max Depth
  Node                 Type         Feet     Feet     Feet  days hr:min        Feet
  ---------------------------------------------------------------------------------
  106A-001             JUNCTION    40.99   204.07   204.82     1  05:56      155.35
  106A-001ALT          JUNCTION    40.07   507.10   506.50     1  22:39      442.63
  106A-022             JUNCTION     1.75     9.62     0.34     1  13:43        9.61
  106A-023             JUNCTION     2.54    10.30     1.31     1  13:44       10.29
  106A-026             JUNCTION     3.23    11.03     2.21     1  13:42       11.02
  106A-027             JUNCTION     3.90    11.73     3.00     1  13:43       11.73
  106A-028             JUNCTION     4.25    12.11     3.84     1  13:42       12.10
  106A-029             JUNCTION     4.51    12.52     4.44     1  12:24       12.51
  106A-047             JUNCTION     5.03    13.20     5.40     1  12:22       13.17
  106A-048             JUNCTION     5.26    13.38     5.72     1  12:21       13.36
  106A-056             JUNCTION     5.47    13.54     6.05     1  12:21       13.53
  106A-057             JUNCTION     5.48    13.50     6.38     1  12:19       13.49
  106A-062             JUNCTION     5.77    13.53     6.84     1  12:17       13.51
  106A-068             JUNCTION     5.86    13.36     6.88     1  12:17       13.34
  106A-075             JUNCTION     6.00    13.24     6.92     1  12:18       13.23
  106A-082             JUNCTION     6.11    13.08     6.96     1  12:17       13.07
  106A-089             JUNCTION     6.24    12.88     7.00     1  12:05       12.88
  106A-090             JUNCTION     0.53     3.00    10.50     1  12:06        3.00
  106A-091             JUNCTION     3.59     5.68    14.00     1  12:01        5.68
  106A-093             JUNCTION     3.19     4.53    15.00     1  04:51        4.53
  106A-094             JUNCTION     3.02     4.33    15.82     2  02:45        4.33
  106A-096             JUNCTION     2.93     4.22    16.50     1  05:39        4.22
  106A-109             JUNCTION     6.27    12.73     7.27     1  12:05       12.73
  106A-117             JUNCTION     6.19    12.30     7.06     1  12:05       12.29
  106A-122             JUNCTION     6.13    11.84     6.82     1  12:05       11.82
  106A-130             JUNCTION     6.05    11.39     6.60     1  12:05       11.37
  106A-160             JUNCTION     5.99    11.01     6.41     1  12:05       10.99
  106A-163             JUNCTION     5.96    10.73     6.26     1  12:05       10.71
  106A-164             JUNCTION     5.77    10.13     6.02     1  12:04       10.13
  106A-166             JUNCTION     4.63     8.92     6.42     1  12:07        8.92
  106A-182             JUNCTION     4.75     8.70     6.50     1  11:43        8.70
  106A-190             JUNCTION     4.79     9.00     7.00     1  12:01        9.00
  106A-236             JUNCTION     4.05     7.58     6.90     1  10:56        7.58
  106A-238             JUNCTION     3.71     7.15     7.00     1  10:55        7.15
  106A-239             JUNCTION     3.45     7.12     7.39     1  12:06        7.09
  106A-240             JUNCTION     3.34     7.19     7.69     1  12:07        7.14
  106A-251             JUNCTION     2.74     6.71     8.19     1  12:07        6.67
  106A-252             JUNCTION     2.45     6.07     8.00     1  12:00        6.07
  106A-253             JUNCTION     2.27     5.80     8.00     1  11:59        5.80
  106A-254             JUNCTION     1.79     5.28     8.01     1  12:25        5.27
  106A-256             JUNCTION     1.49     4.82     8.01     1  12:34        4.81
  106A-301             JUNCTION     5.63     9.90     6.00     1  11:59        9.90
  106A-303             JUNCTION     4.33     8.21     7.00     1  11:41        8.21
  111A-001             JUNCTION    14.74    21.38    29.52     1  12:08       21.33
  111A-008             JUNCTION     3.46     8.26     7.00     1  12:04        8.24
  111A-066             JUNCTION     3.36     8.82     8.11     1  12:06        8.78
  111A-067             JUNCTION     3.28     8.47     8.03     1  12:06        8.39
  111A-068             JUNCTION     3.24     8.36     8.01     1  12:06        8.26
  111A-069             JUNCTION     3.21     8.22     7.98     1  12:06        8.10
  111A-070             JUNCTION     3.20     8.21     7.99     1  12:06        8.07
  111A-071             JUNCTION     3.17     8.06     7.96     1  12:06        7.89
  111A-075             JUNCTION     3.06     7.21     7.44     1  12:06        7.10
  111A-076             JUNCTION     3.00     6.54     6.97     1  12:05        6.50
  111A-077             JUNCTION     2.97     6.22     6.75     1  12:05        6.19
  111A-083             JUNCTION     2.93     5.85     6.50     1  03:42        5.85
  111A-086             JUNCTION     2.90     6.03     6.84     1  12:12        6.03
  111A-087             JUNCTION     2.76     5.96     7.00     1  12:01        5.96
  111A-097             JUNCTION     2.93     7.97     9.54     1  12:04        7.96
  111A-098             JUNCTION     2.92     7.58     9.26     1  12:04        7.56
  111A-099             JUNCTION     0.00     0.00     9.32     0  00:00        0.00
  111A-100             JUNCTION     0.00     0.00    12.89     0  00:00        0.00
  111A-101             JUNCTION     0.00     0.00    14.68     0  00:00        0.00
  111A-102             JUNCTION     0.00     0.00    16.06     0  00:00        0.00
  111A-150             JUNCTION     2.86     7.05     8.92     1  12:04        7.03
  111A-151             JUNCTION     2.81     6.53     8.59     1  12:09        6.52
  111A-153             JUNCTION     2.66     5.66     8.19     1  13:11        5.66
  111A-176             JUNCTION     2.59     5.52     8.42     1  12:43        5.51
  111A-182             JUNCTION     2.42     5.22     8.83     1  13:01        5.22
  111A-183             JUNCTION     2.26     4.97     9.37     1  13:19        4.97
  111A-184             JUNCTION     2.25     4.94     9.72     1  14:24        4.93
  111A-185             JUNCTION     2.22     4.89     9.90     1  10:17        4.89
  111A-186             JUNCTION     1.79     5.51    11.80     1  11:47        5.51
  111A-192             JUNCTION     0.21     0.60    34.05     1  12:12        0.60
  111A-199             JUNCTION     0.64     4.44    38.74     1  12:06        4.44
  111A-200             JUNCTION     0.77     7.46    42.55     1  12:06        7.45
  111A-204             JUNCTION     2.01     4.49     9.90     1  06:41        4.49
  111A-205             JUNCTION     1.95     4.29    10.04     1  12:46        4.29
  111A-206             JUNCTION     1.99     4.27    10.29     1  06:56        4.26
  111A-207             JUNCTION     1.93     4.11    10.49     1  19:11        4.10
  111A-247             JUNCTION     2.07     5.04    12.94     1  15:51        5.04
  111A-298             JUNCTION     0.93    10.27    46.10     1  12:49       10.27
  111A-299             JUNCTION     1.09    13.21    49.80     1  12:06       13.21
  111A-546             JUNCTION     3.47     7.34     5.80     1  12:04        7.32
  111A-547             JUNCTION     3.61     6.99     4.99     1  12:07        6.98
  111A-548             JUNCTION     3.57     6.95     5.00     1  12:07        6.94
  111A-550             JUNCTION     3.50     6.79     5.06     1  03:36        6.79
  111A-551             JUNCTION     3.48     7.10     5.48     1  12:04        7.10
  111A-559             JUNCTION     2.52     5.39     8.60     1  12:44        5.39
  111A-560             JUNCTION     2.89     6.85     8.00     1  12:04        6.84
  111A-573             JUNCTION     3.58     7.19     4.92     1  12:08        7.17
  111A-J66             JUNCTION     1.98     4.14    10.64     1  11:55        4.13
  112A-001             JUNCTION    15.96   213.15   240.35     1  17:51       66.02
  114A-001             JUNCTION    20.47    27.94    47.11     1  13:00       27.94
  116A-001             JUNCTION    10.33    22.38    33.84     1  16:28       22.37
  116A-013             JUNCTION     1.55    10.34    16.30     1  12:08       10.29
  116A-020             JUNCTION     1.58    10.53    16.50     1  12:08       10.49
  116A-023             JUNCTION     1.60    11.84    18.25     1  12:08       11.82
  117A-001             JUNCTION    19.39    25.17    30.41     1  05:50       25.17
  118A-001             JUNCTION    17.10    98.29   100.62     3  00:12       63.85
  118A-002             JUNCTION     5.60    10.41     9.91     1  12:58       10.40
  118A-004             JUNCTION     5.34    10.11    10.11     1  16:17       10.10
  118A-005             JUNCTION     4.74     9.20    10.21     1  10:45        9.20
  118A-009             JUNCTION     4.55     8.92    10.28     1  14:24        8.91
  118A-012             JUNCTION     4.14     8.20    10.54     1  12:46        8.19
  118A-013             JUNCTION     3.85     7.72    10.72     1  14:24        7.72
  118A-014             JUNCTION     1.40     3.32    11.27     1  12:46        3.32
  121A-001             JUNCTION     5.22    26.97    32.47     1  12:06       26.94
  123A-001             JUNCTION     4.38    12.40    22.89     1  12:33       12.39
  128A-001             JUNCTION    30.80    66.64    83.60     1  11:11       66.62
  131A-001             JUNCTION    59.86    96.32   135.12     1  12:08       96.23
  131A-J38             JUNCTION    51.30    84.04   125.04     1  12:08       83.70
  134A-001             JUNCTION     4.27    10.19     5.03     1  10:26       10.15
  134A-041             JUNCTION     1.73     6.22     5.03     1  10:27        6.18
  134A-042             JUNCTION     0.69     2.88     5.03     1  10:26        2.84
  134B-001             JUNCTION    27.16    57.77    52.61     2  09:01       50.04
  140A-001             JUNCTION     3.70     8.61    26.94     1  11:07        8.61
  151A-001             JUNCTION     7.50    12.41     9.33     1  12:09       12.41
  151A-003             JUNCTION     5.88    12.48     3.25     1  12:05       12.33
  151A-005             JUNCTION     5.65    12.87     4.08     1  12:05       12.72
  151A-006             JUNCTION     5.47    12.51     4.07     1  12:05       12.41
  151A-007             JUNCTION     5.31    12.20     4.08     1  12:05       12.13
  151A-008             JUNCTION     5.16    11.89     4.07     1  12:05       11.86
  151A-010             JUNCTION     4.80    10.85     3.88     1  12:04       10.85
  151A-011             JUNCTION     4.70    10.41     3.73     1  12:00       10.41
  151A-012             JUNCTION     4.63    10.27     3.82     1  12:05       10.27
  151A-013             JUNCTION     4.63    10.16     3.92     1  11:54       10.16
  151A-014             JUNCTION     4.64    10.13     4.07     1  12:03       10.13
  151A-015             JUNCTION     4.46     9.88     4.23     1  12:21        9.87
  151A-016             JUNCTION     4.37     9.69     4.34     1  12:05        9.68
  151A-017             JUNCTION     4.19     9.43     4.40     1  12:21        9.42
  151A-018             JUNCTION     4.29     9.34     4.55     1  12:21        9.33
  151A-019             JUNCTION     4.22     9.17     4.74     1  12:13        9.16
  151A-020             JUNCTION     4.10     8.89     4.95     1  12:08        8.88
  151A-021             JUNCTION     4.14     8.80     5.11     1  06:42        8.80
  151A-022             JUNCTION     4.18     9.08     5.55     1  12:05        9.08
  151A-023             JUNCTION     4.17     9.32     6.00     1  12:05        9.31
  151A-024             JUNCTION     4.20     9.71     6.69     1  12:04        9.71
  151A-025             JUNCTION     4.38    10.20     7.31     1  12:04       10.20
  151A-026             JUNCTION     3.97     9.70     7.34     1  12:05        9.70
  151A-027             JUNCTION     4.06     9.64     7.36     1  11:58        9.64
  151A-028             JUNCTION     0.52     5.45     5.00     1  06:48        3.01
  151A-029             JUNCTION     0.11     0.42     9.93     1  12:22        0.42
  151A-030             JUNCTION     0.35     4.32    16.51     1  12:19        4.31
  151A-164             JUNCTION     0.97     2.46     9.36     1  12:15        2.46
  151A-165             JUNCTION     1.20     3.31    10.31     1  12:13        3.30
  151A-166             JUNCTION     0.71     2.94    10.46     1  12:11        2.92
  151A-168             JUNCTION     0.95     3.36    11.41     1  12:12        3.32
  151A-169             JUNCTION     0.99     3.93    12.38     1  12:12        3.85
  151A-189             JUNCTION     4.23    10.03     7.26     1  12:04       10.03
  151A-191             JUNCTION     3.48     8.88     7.75     1  12:04        8.87
  151A-192             JUNCTION     3.60     8.82     7.57     1  12:04        8.81
  151A-199             JUNCTION     3.46     8.49     7.38     1  10:18        8.49
  151A-200             JUNCTION     3.35     8.39     7.39     1  11:48        8.38
  151A-201             JUNCTION     0.91     3.32     7.59     1  06:27        3.12
  151A-202             JUNCTION     3.08     8.12     7.40     1  14:39        8.11
  151A-203             JUNCTION     3.07     8.11     7.40     1  11:48        8.10
  151A-204             JUNCTION     2.89     7.92     7.40     1  11:48        7.91
  151A-205             JUNCTION     2.72     7.67     7.40     1  11:48        7.66
  151A-206             JUNCTION     2.60     7.44     7.40     1  14:35        7.43
  151A-209             JUNCTION     1.01     5.53    14.40     1  12:10        4.40
  151A-210             JUNCTION     1.03     6.31    15.56     1  12:10        5.47
  151A-211             JUNCTION     1.07     7.83    17.44     1  12:09        6.95
  151A-212             JUNCTION     1.03     9.17    19.23     1  12:09        8.12
  151A-213             JUNCTION     1.07    10.43    20.88     1  12:09        9.05
  151A-214             JUNCTION     1.06    11.57    22.43     1  12:09        9.69
  151A-215             JUNCTION     0.85    11.47    23.39     1  12:09        9.59
  151A-219             JUNCTION     0.65     9.52    23.15     1  12:09        8.16
  151A-220             JUNCTION     0.44     1.04    21.07     1  12:10        1.03
  151A-221             JUNCTION     0.98     2.77    23.30     1  12:08        2.75
  151A-222             JUNCTION     0.95     3.32    24.36     1  12:08        3.29
  151A-223             JUNCTION     0.64     2.03    25.25     1  12:08        1.99
  151A-240             JUNCTION     0.42     0.93    33.93     1  12:13        0.93
  151A-241             JUNCTION     1.07     2.34    35.42     1  12:12        2.32
  151A-242             JUNCTION     0.96     2.54    35.96     1  12:12        2.51
  151A-246             JUNCTION     0.97     2.78    36.46     1  12:11        2.73
  151A-247             JUNCTION     0.93     2.94    36.95     1  12:11        2.87
  151A-248             JUNCTION     0.85     3.01    37.56     1  12:11        2.92
  151A-249             JUNCTION     1.34     3.97    38.32     1  12:11        3.87
  151A-250             JUNCTION     0.83     3.90    39.22     1  12:11        3.80
  151A-252             JUNCTION     0.29     3.76    40.78     1  12:03        2.98
  151A-253             JUNCTION     0.37     3.29    40.10     1  12:08        3.14
  151A-254             JUNCTION     0.36     3.46    40.78     1  12:08        2.72
  151A-255             JUNCTION     0.38     3.37    41.11     1  12:06        2.39
  151A-256             JUNCTION     0.36     1.99    40.30     1  12:16        1.94
  151A-257             JUNCTION     0.35     1.58    40.42     1  12:16        1.54
  151A-258             JUNCTION     0.34     1.48    40.45     1  12:17        1.45
  151A-259             JUNCTION     0.80     4.01    40.30     1  12:08        3.83
  151A-261             JUNCTION     0.89     4.69    41.07     1  12:08        3.88
  151A-264             JUNCTION     0.80     5.20    41.85     1  12:08        3.78
  151A-265             JUNCTION     0.73     5.42    42.31     1  12:08        3.63
  151A-282             JUNCTION     5.67     9.51     7.48     1  12:07        9.50
  151A-287             JUNCTION     3.63     9.30     7.45     1  12:03        9.27
  151A-J40             JUNCTION    22.52    63.32   103.32     2  07:27       41.16
  151A-J47             JUNCTION     7.20    11.88     9.02     1  12:09       11.88
  152A-001             JUNCTION    14.86    31.66    27.53     1  22:06       31.26
  162A-001             JUNCTION    12.02    16.87    24.82     1  07:53       16.87
  163A-001             JUNCTION    32.40    50.18    42.20     1  12:38       50.01
  163A-003             JUNCTION     0.00     0.00    -3.70     0  00:00        0.00
  163A-004             JUNCTION     0.00     0.00    -3.62     0  00:00        0.00
  163A-005             JUNCTION     0.00     0.00    -3.50     0  00:00        0.00
  163A-006             JUNCTION     0.00     0.00    -3.04     0  00:00        0.00
  163A-007             JUNCTION     0.54     3.44    -5.52     1  12:40        3.42
  163A-008             JUNCTION     0.85     3.39    -5.42     1  12:41        3.32
  163A-009             JUNCTION     0.25     5.15    -2.70     1  12:32        2.33
  163A-010             JUNCTION     0.49     2.23    -5.27     1  12:34        2.07
  163A-011             JUNCTION     0.40     1.31    -5.31     1  12:22        1.29
  163A-012             JUNCTION     0.00     0.00    -2.04     0  00:00        0.00
  163A-017             JUNCTION     0.68     2.00    -4.31     1  12:09        2.00
  163A-018             JUNCTION     0.68     2.21    -3.87     1  12:09        2.20
  163A-019             JUNCTION     0.53     2.92    -2.98     1  12:15        2.23
  163A-020             JUNCTION     0.36     4.05    -0.02     1  12:15        1.85
  163A-021             JUNCTION     0.35     4.58     1.87     1  12:15        1.51
  163A-022             JUNCTION     0.29     1.33    -1.16     1  12:19        1.32
  163A-023             JUNCTION     0.36     1.25    -0.47     1  12:12        1.19
  163A-025             JUNCTION     0.27     0.83     3.89     1  12:12        0.82
  163A-028             JUNCTION     0.45     1.55     5.25     1  12:11        1.54
  163A-029             JUNCTION     0.45     1.55     5.41     1  12:11        1.55
  163A-030             JUNCTION     0.44     1.56     5.71     1  12:09        1.56
  163A-031             JUNCTION     0.51     1.66     5.86     1  12:09        1.65
  163A-032             JUNCTION     0.11     0.26     7.01     1  12:30        0.26
  163A-034             JUNCTION     0.40     1.54     5.94     1  12:08        1.53
  163A-035             JUNCTION     0.43     1.57     6.26     1  12:06        1.51
  163A-038             JUNCTION     0.38     2.23     8.35     1  12:05        2.17
  163A-043             JUNCTION     0.41     3.19    10.37     1  12:05        3.17
  163A-044             JUNCTION     0.54     4.40    11.98     1  12:05        4.39
  163A-045             JUNCTION     0.57     5.82    13.89     1  12:03        5.81
  163A-046             JUNCTION     0.54     5.90    14.08     1  12:03        5.90
  163A-047             JUNCTION     0.48     5.90    14.29     1  12:05        5.90
  163A-051             JUNCTION     0.13     7.28    17.51     1  12:05        7.27
  163A-075             JUNCTION     0.37     5.42    14.16     1  12:05        5.42
  163A-077             JUNCTION     0.35     4.84    14.00     1  12:02        4.84
  163A-098             JUNCTION     0.00     0.00    -1.00     0  00:00        0.00
  163A-100             JUNCTION     0.39     1.17    -3.81     1  12:35        1.17
  163A-101             JUNCTION     0.22     0.72     2.81     1  12:25        0.72
  163A-109             JUNCTION     0.43     2.23     5.13     1  12:23        2.23
  163A-110             JUNCTION     0.02     0.97     5.13     1  12:25        0.97
  163A-111             JUNCTION     0.01     0.63     5.13     1  12:25        0.63
  163A-125             JUNCTION     0.43     2.15     5.45     1  12:23        2.15
  163A-130             JUNCTION     0.32     1.96     5.51     1  12:23        1.95
  163A-145             JUNCTION     0.39     1.84     5.95     1  12:23        1.84
  163A-154             JUNCTION     0.41     1.72     6.12     1  12:24        1.72
  163A-164             JUNCTION     0.40     1.62     6.30     1  12:24        1.62
  163A-172             JUNCTION     0.36     3.62     9.27     1  12:07        2.31
  163A-173             JUNCTION     0.36     2.74     8.75     1  12:07        2.69
  163A-178             JUNCTION     0.29     2.93     9.52     1  12:06        2.86
  163A-182             JUNCTION     0.29     2.91    10.08     1  12:13        2.88
  163A-183             JUNCTION     0.29     2.92    10.61     1  12:13        2.90
  163A-241             JUNCTION     0.00     0.67    11.46     1  12:14        0.65
  163A-242             JUNCTION     0.00     0.02    11.45     1  12:15        0.02
  163A-243             JUNCTION     0.00     0.00    12.00     0  00:00        0.00
  163A-244             JUNCTION     0.00     0.00    12.26     0  00:00        0.00
  163A-346             JUNCTION     0.34     2.89     9.08     1  12:13        2.84
  163A-348             JUNCTION     0.00     0.01    -4.15     1  12:20        0.01
  163A-349             JUNCTION     0.00     0.00     1.55     0  00:00        0.00
  163A-350             JUNCTION     0.00     0.00     1.80     0  00:00        0.00
  163A-351             JUNCTION     0.00     0.00     2.43     0  00:00        0.00
  163A-361             JUNCTION     0.00     0.00    -3.34     0  00:00        0.00
  163A-363             JUNCTION     0.43     2.23     5.16     1  12:23        2.22
  163A-367             JUNCTION     0.00     0.00    -1.35     0  00:00        0.00
  163A-368             JUNCTION     0.00     0.00    -2.16     0  00:00        0.00
  163A-369             JUNCTION     0.00     0.00     2.13     0  00:00        0.00
  163A-370             JUNCTION     0.00     0.00    11.40     0  00:00        0.00
  163A-372             JUNCTION     0.00     0.00    11.51     0  00:00        0.00
  163A-391             JUNCTION     5.57    21.58    24.48     1  12:17       21.58
  163A-J52             JUNCTION     1.67     6.04    -5.56     1  12:38        5.94
  164A-001             JUNCTION    19.20   203.73   253.00     2  02:57       39.62
  164A-002             JUNCTION     2.91     9.57    48.80     1  13:16        9.56
  164A-008             JUNCTION     1.52     5.62    49.10     1  13:13        5.61
  164A-009             JUNCTION     1.21     4.57    49.05     1  13:18        4.56
  164A-010             JUNCTION     1.06     4.00    49.01     1  10:19        4.00
  164A-014             JUNCTION     0.71     2.82    49.07     1  16:33        2.82
  164A-015             JUNCTION     0.82     2.82    49.10     1  11:49        2.81
  164A-016             JUNCTION     0.72     2.65    49.12     1  14:24        2.64
  164A-017             JUNCTION     4.17     6.13    49.16     1  10:19        6.12
  164A-019             JUNCTION     3.73     5.70    49.19     1  13:00        5.69
  172A-001             JUNCTION     4.94    11.57     2.77     1  12:08       11.37
  172A-004             JUNCTION     4.76    11.61     3.24     1  12:07       11.42
  172A-049             JUNCTION     1.72     5.76     2.79     1  12:08        5.57
  172A-050             JUNCTION     1.69     5.53     2.86     1  12:08        5.36
  172A-051             JUNCTION     1.49     5.12     2.95     1  12:08        4.97
  172A-052             JUNCTION     1.39     4.89     3.00     1  12:08        4.75
  172A-053             JUNCTION     1.30     4.66     3.06     1  12:08        4.53
  172A-054             JUNCTION     1.20     4.42     3.11     1  12:08        4.31
  172A-055             JUNCTION     1.05     4.03     3.20     1  12:08        3.95
  172A-056             JUNCTION     0.83     3.36     3.50     1  10:55        3.36
  172A-057             JUNCTION     0.80     4.14     4.90     1  12:38        4.14
  172A-058             JUNCTION     0.79     4.69     5.87     1  13:07        4.68
  172A-108             JUNCTION     4.47    12.12     4.81     1  12:07       11.96
  172A-112             JUNCTION     4.45    12.06     4.90     1  12:07       11.93
  172A-113             JUNCTION     4.31    11.87     5.02     1  12:07       11.78
  172A-121             JUNCTION     4.20    11.71     5.17     1  12:08       11.64
  172A-122             JUNCTION     4.15    11.61     5.36     1  12:08       11.58
  172A-154             JUNCTION     4.54    11.82     6.30     1  12:04       11.82
  172A-160             JUNCTION     4.77    12.08     6.66     1  12:12       12.08
  172A-161             JUNCTION     4.97    12.31     6.97     1  12:08       12.30
  172A-170             JUNCTION     5.33    12.73     7.60     1  10:05       12.73
  172A-179             JUNCTION     5.71    14.15     9.20     1  13:33       14.15
  172A-J59             JUNCTION     6.80    11.77    13.83     2  09:16        9.46
  172A-J59A            JUNCTION    16.09   106.35   107.35     2  07:11       62.83
  172B-001             JUNCTION    19.30   209.92   213.00     2  05:54       86.94
  172B-001B            JUNCTION    18.50   209.92   213.00     2  20:14       65.57
  177A-001             JUNCTION     3.72     8.94    21.69     1  12:05        8.93
  177A-002             JUNCTION     4.36    13.49    18.27     1  12:05       13.47
  183A-001             JUNCTION    32.09    73.52    95.93     2  09:16       47.90
  183A-009             JUNCTION     7.33    14.54    28.54     1  12:07       14.42
  183A-016             JUNCTION     7.47    14.94    29.00     1  12:04       14.94
  185A-001             JUNCTION     1.04     4.60    10.10     1  12:58        4.59
  190A-001             JUNCTION     2.82     9.03    10.23     2  01:13        6.58
  190A-002             JUNCTION     1.64     9.63     6.98     1  12:04        9.59
  190A-006             JUNCTION     1.42     9.21     7.00     1  12:03        9.21
  190A-017             JUNCTION     1.43     8.92     7.83     1  12:05        8.92
  190A-018             JUNCTION     1.45     8.37     7.70     1  11:49        8.37
  190A-019             JUNCTION     1.52     9.11     8.89     1  12:25        9.10
  190A-020             JUNCTION     1.59     9.83    10.04     1  12:29        9.82
  190A-025             JUNCTION     1.65    10.54    11.24     1  12:21       10.53
  190A-026             JUNCTION     1.72    11.13    12.19     1  11:58       11.12
  190A-027             JUNCTION     1.75    11.54    12.86     1  11:58       11.53
  190A-028             JUNCTION     1.80    12.15    13.92     1  11:58       12.14
  190A-029             JUNCTION     1.91    12.99    15.19     1  12:47       12.98
  190A-030             JUNCTION     2.00    13.92    16.68     1  12:37       13.92
  190A-037             JUNCTION     1.99    13.39    17.20     1  11:55       13.39
  194A-001             JUNCTION    15.31   206.65   240.65     1  02:23       30.67
  194A-J54             JUNCTION     8.05    99.47   133.41     2  02:52       31.80
  195A-001             JUNCTION     9.72    25.78    20.60     1  12:15       25.66
  195A-002             JUNCTION     0.16     8.10     5.00     1  12:06        6.25
  199A-001             JUNCTION    18.31   209.36   207.94     2  17:07       38.84
  199A-002             JUNCTION     2.69    10.23     4.76     1  11:32       10.23
  199A-003             JUNCTION     2.39     9.75     5.00     1  11:03        9.75
  199A-004             JUNCTION     0.64     3.65     5.88     1  11:21        3.65
  199A-007             JUNCTION     2.02     4.00     9.50     1  01:40        4.00
  199A-008             JUNCTION     1.70     3.50    12.50     1  04:24        3.50
  199A-015             JUNCTION     1.15     2.59    18.05     1  13:46        2.58
  199A-016             JUNCTION     1.61     3.54    19.67     1  15:05        3.53
  199A-017             JUNCTION     1.87     4.13    20.65     1  06:11        4.13
  199A-021             JUNCTION     1.97     4.39    21.41     1  12:15        4.38
  199A-022             JUNCTION     2.45     5.40    22.96     1  10:01        5.39
  199A-J53             JUNCTION     1.16     3.89     7.18     1  12:51        3.89
  203A-001             JUNCTION    14.87   108.03   104.98     2  06:02       28.03
  206A-001             JUNCTION    27.58    42.05    30.03     1  12:07       41.99
  206A-003             JUNCTION     2.10    12.32     5.12     1  12:45       12.31
  206A-006             JUNCTION     1.84    11.45     5.17     1  12:45       11.41
  206A-011             JUNCTION     0.85     6.30     3.50     1  11:49        6.30
  206A-014             JUNCTION     0.28     2.73     3.53     1  11:52        2.71
  206A-017             JUNCTION     0.05     0.64     3.55     1  11:52        0.60
  206A-018             JUNCTION     0.00     0.00     9.39     0  00:00        0.00
  206A-021             JUNCTION     0.00     0.06     3.56     1  11:54        0.05
  206A-022             JUNCTION     0.00     0.00     4.54     0  00:00        0.00
  206A-023             JUNCTION     0.00     0.00     9.71     0  00:00        0.00
  206A-024             JUNCTION     0.00     0.00    22.13     0  00:00        0.00
  206A-026             JUNCTION     0.00     0.00     5.14     0  00:00        0.00
  206A-027             JUNCTION     0.00     0.00     6.60     0  00:00        0.00
  206A-028             JUNCTION     0.00     0.00     8.39     0  00:00        0.00
  206A-032             JUNCTION     1.63    10.69     5.41     1  12:56       10.50
  206A-033             JUNCTION     1.42     9.90     5.62     1  12:56        9.60
  206A-036             JUNCTION     1.25     9.20     5.79     1  12:56        8.81
  206A-037             JUNCTION     1.07     8.49     6.11     1  16:05        7.87
  206A-038             JUNCTION     1.02     8.27     6.20     1  16:05        7.59
  206A-039             JUNCTION     0.87     7.39     6.31     1  16:05        6.70
  206A-040             JUNCTION     0.70     6.27     6.34     1  16:05        5.63
  206A-041             JUNCTION     0.63     5.45     6.30     1  16:05        4.94
  206A-042             JUNCTION     0.51     4.50     6.27     1  14:19        4.11
  206A-043             JUNCTION     0.38     3.73     6.53     1  14:19        3.14
  206A-044             JUNCTION     0.37     2.70     6.00     1  11:48        2.70
  206A-045             JUNCTION     0.27    10.17    14.49     1  15:15        3.91
  206A-048             JUNCTION     0.09     0.31    16.10     1  12:11        0.31
  206A-051             JUNCTION     0.17     1.18    17.57     1  12:03        1.15
  206A-054             JUNCTION     0.00     0.00     8.81     0  00:00        0.00
  206A-J16             JUNCTION    16.48    24.99    25.19     1  12:06       24.89
  225A-001             JUNCTION     5.91    13.46    13.09     1  17:39       12.48
  227A-001             JUNCTION    12.47    34.94    55.94     1  12:16       34.94
  232A-232             JUNCTION    25.69    42.27    73.77     2  22:09       31.98
  246A-001             JUNCTION    18.96    23.75    26.25     1  12:05       23.74
  246A-020             JUNCTION     9.95    13.59     8.19     1  12:17       13.58
  246A-021             JUNCTION     9.71    13.79     8.90     1  12:03       13.79
  246A-023             JUNCTION     8.56    12.65     9.47     1  12:09       12.64
  252-001              JUNCTION    15.01    64.41    94.06     2  06:48       26.25
  255A-004             JUNCTION     1.00     3.72    11.52     1  01:22        3.72
  266A-001             JUNCTION    35.91    88.30   115.17     1  12:08       88.17
  266A-J25             JUNCTION    14.38    37.00    73.89     1  12:08       36.46
  266A-VP12            JUNCTION    17.40    38.68    73.65     1  12:08       38.14
  266A-VP13            JUNCTION    13.71    36.26    73.78     1  06:19       35.69
  267A-001             JUNCTION     7.99    20.33    47.83     1  11:36       20.33
  281A-001             JUNCTION     7.62    19.53    39.53     1  10:29       19.52
  281A-003             JUNCTION    11.08    18.58    39.58     1  14:24       18.57
  281A-031             JUNCTION     8.25    15.92    40.12     1  10:24       15.92
  281A-036             JUNCTION     7.13    15.46    41.19     1  10:29       15.46
  281A-072             JUNCTION    42.88    75.11    86.21     1  17:20       75.11
  281A-077             JUNCTION     9.59    17.07    39.64     1  17:21       17.06
  282A-001             JUNCTION    41.31   218.14   210.64     0  20:01       84.92
  282A-009             JUNCTION     2.80     5.00    11.50     1  10:40        5.00
  282A-012             JUNCTION     0.02     0.58    12.24     1  12:13        0.52
  282A-016             JUNCTION     0.02     0.43    13.67     1  12:08        0.42
  282A-017             JUNCTION     0.03     1.37    15.44     1  12:07        0.93
  283A-001             JUNCTION    33.64   220.81   206.11     2  04:53      114.22
  283A-003             JUNCTION     2.89    10.37     5.10     1  09:36       10.37
  314A-001             JUNCTION     1.31    11.14    47.58     1  12:08       11.13
  314A-004             JUNCTION     1.65    11.66    48.29     1  12:08       11.66
  314A-010             JUNCTION     1.90    12.02    48.96     1  12:09       12.01
  314A-037             JUNCTION     2.30    11.99    49.20     1  12:03       11.99
  316A-001             JUNCTION     3.13     6.08     6.35     1  12:05        6.08
  316A-002             JUNCTION     2.42     4.88     6.41     1  12:05        4.88
  316A-003             JUNCTION     2.48     4.69     6.50     1  10:27        4.69
  316A-016             JUNCTION     2.25     8.61    13.29     1  12:06        8.40
  316A-017             JUNCTION     2.54    13.88    20.56     1  12:06       13.45
  316A-087             JUNCTION     1.45     7.68    19.50     1  12:03        7.68
  316A-100             JUNCTION     1.56     7.24    19.96     1  12:05        7.22
  316A-111             JUNCTION     1.62     7.25    20.42     1  12:05        7.22
  316A-114             JUNCTION     1.68     7.29    20.65     1  12:05        7.25
  316A-117             JUNCTION     1.82     7.41    21.22     1  12:05        7.35
  316A-119             JUNCTION     1.13     4.28    21.00     1  10:37        4.28
  316A-120             JUNCTION     1.60     5.12    21.81     1  11:42        5.12
  316A-147             JUNCTION     1.72     7.04    21.54     1  12:05        7.02
  316A-149             JUNCTION     1.91     7.40    21.69     1  12:05        7.35
  316A-188             JUNCTION     1.47     5.61    23.00     1  11:32        5.61
  316A-189             JUNCTION     1.67     7.47    25.26     1  12:05        7.47
  316A-243             JUNCTION     1.55     6.63    21.40     1  12:03        6.63
  316A-245             JUNCTION     1.60     7.25    20.20     1  12:05        7.23
  329A-001             JUNCTION     6.89    13.22    28.00     1  11:52       13.22
  329A-002             JUNCTION     4.75     9.01    27.44     1  04:16        9.01
  329A-003             JUNCTION     4.80     9.15    28.50     1  05:16        9.15
  329A-005             JUNCTION     4.87     9.47    29.60     1  21:27        9.47
  329A-006             JUNCTION     4.80     9.50    30.65     1  19:26        9.50
  329A-007             JUNCTION     5.02     9.97    31.64     1  20:02        9.97
  329A-008             JUNCTION     5.13    10.29    32.42     1  19:36       10.28
  329A-009             JUNCTION     5.27    10.69    33.60     1  23:45       10.69
  329A-023             JUNCTION     5.30    11.14    35.39     1  12:05       11.13
  329A-027             JUNCTION     5.13    11.14    36.06     1  12:25       11.13
  329A-030             JUNCTION     5.04    11.25    36.71     1  12:14       11.25
  329A-031             JUNCTION     4.87    11.22    37.32     1  12:25       11.21
  329A-040             JUNCTION     4.64    11.26    38.40     1  12:07       11.25
  329A-044             JUNCTION     4.53    11.30    38.96     1  12:15       11.30
  329A-046             JUNCTION     4.43    11.41    39.64     1  12:16       11.41
  329A-047             JUNCTION     4.23    11.34    40.32     1  12:06       11.33
  329A-053             JUNCTION     3.79    10.05    40.56     1  12:20       10.04
  329A-054             JUNCTION     3.64     7.84    38.98     1  05:44        7.84
[...]
  394A-050/394A-049          23.17     23.17     24.13      0.25         0.57
  394A-051/394A-050          22.40     22.40     23.17      0.01         0.01
  394A-052/394A-051          21.26     21.26     22.40      0.01         0.01
  394A-066/394A-052          20.45     20.45     21.26      0.01         0.05
  394A-070/394A-066          20.26     20.26     20.45     13.61        13.65
  394A-073/394A-247          19.35     19.35     19.59      0.01         0.01
  394A-074/394A-070          20.26     20.63     20.26     24.73        20.26
  394A-077/394A-073          19.35     19.35     19.52     19.25         2.71
  394A-086/394A-077          18.02     18.02     19.68      0.01         0.01
  394A-138/394A-086          16.81     16.81     18.02      0.01         0.01
  394A-145/394A-138          15.77     15.77     16.81      0.01         0.01
  394A-154/394A-145          14.29     14.29     15.77      0.01         0.01
  394A-158/394A-154          12.92     12.92     14.29      0.01         0.01
  394A-247/394A-074          19.59     19.59     20.63      0.01         0.01
  395A-001/394A-045          19.88     20.16     19.88     21.93        19.63
  395A-008/395A-004          17.50     17.50     19.07      0.01         0.01
  395A-012/395A-008          15.58     15.58     17.50      0.01         0.01
  395A-019/395A-012          14.32     14.32     15.58      0.01         0.01
  395A-025/395A-019          12.91     12.91     14.32      0.01         0.01
  395A-026/395A-025          12.38     12.38     14.60      2.01         2.00
  395A-029/395A-026          11.25     11.25     12.38      2.18         2.17
  395A-033/395A-029          10.02     10.02     11.25      2.34         2.34
  395A-072/395A-025          12.95     12.95     14.60      0.01         0.01
  395A-073/395A-072          12.82     12.82     12.95      7.46         7.47
  395A-076/395A-073          12.50     12.50     12.82      9.19         9.17
  395A-077/395A-141          11.93     12.12     11.93     18.17        11.93
  395A-079/395A-138          11.98     11.98     13.32     23.45         0.01
  395A-082/395A-140          11.69     11.69     11.71      3.01         3.07
  395A-093/395A-082          11.71     11.71     11.74      0.01         0.22
  395A-098/395A-093          10.66     10.66     11.74      0.01         0.01
  395A-104/395A-098           9.88      9.88     10.66      0.01         0.01
  395A-137/395A-077          12.09     12.09     12.12     10.93        10.32
  395A-138/395A-137          11.98     11.98     12.09     10.09         9.71
  395A-139/395A-079          11.78     11.78     13.32      1.12         0.01
  395A-140/395A-139          11.69     11.69     11.78      2.06         0.01
  395A-141/395A-076          11.93     11.93     12.50      9.19         9.19
  395A-155/395A-001          19.40     19.40     20.16      9.21         9.22
  395A-155/395A-004          19.07     19.07     19.40      9.22         9.20
  396A-001/106A-028          22.03     22.03     59.02     11.52        11.53
  396A-002/396A-001          22.03     26.50     22.03     30.61        22.03
  396A-007/396A-002          24.74     24.74     26.50     22.33        22.20
  396A-009/396A-007          24.74     24.83     24.74     26.22        23.64
  396A-013/396A-009          24.83     25.45     24.83     26.44        23.81
  396A-014/396A-013          25.45     25.63     25.45     24.58        23.67
  396A-015/396A-014          25.57     25.61     25.63     24.31        23.66
  396A-018/396A-015          25.14     25.14     25.61     19.74        19.73
  396A-019/396A-018          24.89     24.89     25.14     17.52        17.62
  396A-020/396A-019          24.89     24.99     24.89     47.15        24.78
  396A-021/396A-020          24.94     24.96     24.99     24.10        22.99
  397A-008/106A-057          44.91     44.91     56.51     34.09        34.11
  397A-009/397A-008          44.75     44.75     44.91     40.77        40.42
  397A-010/397A-009          44.58     44.58     44.75     41.91        41.34
  397A-011/397A-010          44.47     44.47     44.58     42.91        42.23
  397A-015/397A-011          44.34     44.40     44.47     27.38        27.08
  397A-016/397A-015          44.16     44.16     44.40     17.28        17.27
  397A-025/397A-016          43.83     43.83     44.16     13.66        13.66
  397A-026/397A-025          43.50     43.50     43.83     17.18        17.17
  397A-027/397A-026          43.09     43.09     43.50     20.81        20.38
  398A-001/106A-164          47.99     47.99     48.49      0.01         0.01
  398A-002/398A-001          47.78     47.78     47.99      4.01         0.01
  398A-003/398A-002          47.26     47.26     47.78      0.01         0.01
  398A-004/398A-003          47.26     47.33     47.26     81.57        25.62
  398A-005/398A-004          46.96     46.96     47.33      5.25         0.01
  398A-006/398A-005          46.61     46.61     46.96      5.26         0.01
  398A-007/398A-006          46.08     46.08     46.61     22.26        22.26
  398A-008/398A-007          45.92     45.92     46.08     36.54        35.89
  398A-009/398A-008          45.04     45.04     45.57      3.30         3.17
  398A-010/398A-009          45.17     45.17     45.77     16.31        16.32
  398A-011/398A-010          44.84     44.84     45.17      5.97         5.98
  398A-012/398A-011          43.84     43.84     44.84      0.01         0.01
  398A-013/398A-012          42.77     42.77     43.84      2.64         2.66
  398A-014/398A-013          41.64     41.64     42.77      3.12         3.10
  398A-015/398A-014          39.98     39.98     41.64      0.01         0.01
  398A-016/398A-015          35.13     35.13     39.98      4.02         4.04
  398A-017/398A-016          29.09     29.09     35.12      0.01         0.01
  398A-018/398A-017          22.68     22.68     29.09      0.01         0.01
  398A-019/398A-018          19.21     19.21     22.68      0.01         0.01
  398A-020/398A-019          17.66     17.66     19.21      0.01         0.01
  398A-021/398A-020          16.34     16.34     17.66      0.01         0.01
  398A-022/398A-021          15.22     15.22     16.34      0.01         0.01
  398A-023/398A-022          14.28     14.28     15.22      0.01         0.01
  398A-024/398A-023          13.87     13.87     14.66      0.01         0.01
  398A-025/398A-024          13.48     13.48     13.87      0.01         0.01
  398A-026/398A-025           8.43      8.43     13.48      0.01         0.01
  398A-097/398A-009           8.58      8.58     46.13      0.01         0.01
  398A-098/398A-097           0.01      0.01      8.58      0.01         0.01
  398A-099/398A-098           0.01     19.55      0.01     29.85         0.01
  398A-100/398A-099          19.55     22.63     19.55     29.30        19.55
  398A-101/398A-100          22.63     26.46     22.63     32.02        22.63
  398A-102/398A-101          26.46     27.00     26.46     30.77        26.46
  CDT-11                     80.76     81.86     80.87     48.90         4.47
  COLUMBIA-DAVIS_WWTP_OFALL       89.36     95.00     89.36     83.38        12.76
  LCS-006_392A-085           21.34     21.34     84.31     26.48         0.01
  LCS-007A_LC_WETWELL        19.37     19.37     90.39      0.01         0.01
  MAIN-J49_WWTP_OFALL        83.06     83.06     95.00     55.49        55.52
  PERRY-01_PERRY-04          80.24     80.24     80.24     60.00        54.90
  PERRY-02_PERRY-05          85.04     85.04     85.04     71.35        65.96
  PERRY-03_PERRY-06          80.30     80.30     80.30     60.47        55.09
  PERRY-04_PERRY-10          79.08     79.08     80.24      0.01         0.01
  PERRY-05_PERRY-11          81.05     81.05     85.04      0.01         0.01
  PERRY-06_PERRY-12          79.18     79.18     80.30      0.01         0.01
  PERRY-07_PERRY-1           45.34     45.34     80.24      0.01         0.01
  PERRY-08_PERRY-02          80.79     80.79     85.04      0.01         0.01
  PERRY-09_PERRY-03          61.33     61.33     80.30      0.01         0.01
  PERRY-10_366A-311          26.26     26.26     79.22      0.01         0.01
  PERRY-11_366A-311          27.40     27.40     81.05      0.01         0.01
  PERRY-12_366A-311          26.26     26.26     79.28      0.01         0.01
  PPS3/332A-J28              50.36     51.05     90.78     57.82         0.64
  SAN_CARLOS_106A-001ALT       88.67     88.82     93.76     94.06         3.22
  WL-001_WL-001A             90.37     93.94     90.52     55.13        25.82
  WL-001_WL-001C             91.98     92.13     93.94     57.58         0.16
  WLA-001_WL_WETWELL         23.15     23.15     24.55      0.01         0.01
  WTL-001_331A-160           23.89     23.89     85.71     39.54         0.01
  WTL-002_WTL_WETWELL        36.93     36.93     63.64      0.01         0.01
  
  
  ***************
  Pumping Summary
  ***************
  
  ---------------------------------------------------------------------------------------------------------
                                                  Min       Avg       Max     Total     Power    % Time Off
                        Percent   Number of      Flow      Flow      Flow    Volume     Usage    Pump Curve
  Pump                 Utilized   Start-Ups       MGD       MGD       MGD  10^6 gal     Kw-hr    Low   High
  ---------------------------------------------------------------------------------------------------------
  109_PUMP1               58.57         154      0.00      1.15      2.25     2.935    356.94    0.0    0.0
  109_PUMP2               34.03           1      0.00      1.05      1.09     1.407    183.66    0.0    0.0
  BR_PUMP1                59.24         146      0.00      0.50      0.91     1.193     85.16    0.0    0.0
  BR_PUMP2                29.41           1      0.00      0.74      0.76     0.858     62.11    0.0    0.0
  BR_PUMP3                29.11           1      0.00      0.74      0.76     0.850     61.51    0.0    0.0
  BS_PUMP1                38.91        1294      0.00      8.80     14.40    13.963   3061.53    0.0    0.0
  BS_PUMP2                10.28         182      0.00      5.17     14.40     2.085    597.77    0.0    0.0
  BUR_PUMP1               17.47          71      0.00      1.86      4.48     1.286    231.84    0.0    0.0
  BUR_PUMP2                1.93           1      0.00      1.15      1.16     0.087     17.93    0.0    0.0
  CA_PUMP1                59.02          18      0.00      0.08      0.31     0.175     12.83    0.0    0.0
  CA_PUMP2                54.76           1      0.00      0.08      0.08     0.160     11.81    0.0    0.0
  CLA_PUMP1               49.22           1      0.00      0.17      0.20     0.334     23.33    0.0    0.0
  CLA_PUMP2               59.66          94      0.00      0.17      0.21     0.409     28.47    0.0    0.0
  CL_PUMP1                36.41           8      0.00      0.52      0.92     0.770    112.27    0.0    0.0
  CL_PUMP2                29.62           1      0.00      0.51      0.73     0.603     91.03    0.0    0.0
  CM_PUMP1                62.89         363      0.00      0.50      1.22     1.203     62.56    0.0    0.0
  CM_PUMP2                46.08           5      0.00      0.50      1.22     0.897     46.35    0.0    0.0
  COL_PUMP1               25.28           9      0.00      0.94      1.87     0.942    206.83    0.0    0.0
  COL_PUMP2               19.25           1      0.00      0.83      0.86     0.634    153.57    0.0    0.0
  COM_PUMP1               34.42          54      0.00      0.19      1.07     0.273     57.06    0.0    0.0
  COM_PUMP2               18.14           1      0.00      0.15      0.16     0.111     23.89    0.0    0.0
  CU_PUMP1                23.51         116      0.00      0.33      0.70     0.310     20.26    0.0    0.0
  CU_PUMP2                 4.65           1      0.00      0.28      0.30     0.051      3.70    0.0    0.0
  DEX_PUMP1               27.20          17      0.00      0.73      2.02     0.789    138.51    0.0    0.0
  DEX_PUMP2               21.98           1      0.00      0.64      0.67     0.562    101.32    0.0    0.0
  DM_PUMP1                30.19          32      0.00      0.19      0.33     0.226      4.88    0.0    0.0
  DM_PUMP2                14.29           4      0.00      0.19      0.24     0.107      2.29    0.0    0.0
  EL_PUMP1                45.91          47      0.00      0.27      1.00     0.555    153.52    0.0    0.0
  EL_PUMP2                24.36           1      0.00      0.21      0.22     0.201     59.23    0.0    0.0
  EP_PUMP1                35.76          44      0.00      0.26      0.60     0.395     45.69    0.0    0.0
  EP_PUMP2                22.94           1      0.00      0.23      0.24     0.211     26.43    0.0    0.0
  FH_PUMP1                52.93          21      0.00      0.06      0.23     0.122      4.89    0.0    0.0
  FH_PUMP2                23.72           1      0.00      0.06      0.07     0.055      2.20    0.0    0.0
  FM_PUMP1                32.27         139      0.00      0.19      0.24     0.245      5.42    0.0    0.0
  FM_PUMP2                25.13           8      0.00      0.19      0.24     0.192      4.16    0.0    0.0
  GL_PUMP1                30.28           6      0.00      0.21      0.40     0.256     12.75    0.0    0.0
  GL_PUMP2                26.78           1      0.00      0.21      0.23     0.220     11.22    0.0    0.0
  GO_PUMP1                40.92         125      0.00      0.55      0.75     0.944     57.30    0.0    0.0
  GO_PUMP2                24.72           3      0.00      0.49      0.68     0.483     35.61    0.0    0.0
  GO_PUMP3                22.28           3      0.00      0.61      0.83     0.533     40.77    0.0    0.0
  GO_PUMP4                19.10           1      0.00      0.58      0.60     0.438     34.07    0.0    0.0
  HA_PUMP1                57.92          20      0.00      5.23      5.27    12.018    307.23    0.0    0.0
  HA_PUMP2                27.51           1      0.00      5.20      5.27     5.674    159.90    0.0    0.0
  HA_PUMP3                26.52           1      0.00      3.59      4.02     3.800    106.57    0.0    0.0
  HA_PUMP4                25.35           1      0.00      3.58      4.02     3.628    101.91    0.0    0.0
  HL_PUMP1                20.87         382      0.00      0.36      0.39     0.296     20.78    0.0    0.0
  HL_PUMP2                 0.71           1      0.00      0.29      0.30     0.008      0.62    0.0    0.0
  IB_PUMP1                82.69          14      0.00      0.22      0.39     0.737     40.92    0.0    0.0
  IB_PUMP2                64.73           1      0.00      0.22      0.23     0.556     31.81    0.0    0.0
  IND_PUMP1               13.35         131      0.00      0.07      0.07     0.037      0.57    0.0    0.0
  IND_PUMP2                2.02           2      0.00      0.07      0.07     0.006      0.06    0.0    0.0
  KN_PUMP1                54.84         235      0.00      0.24      0.29     0.511     22.02    0.0    0.0
  KN_PUMP2                43.04           1      0.00      0.23      0.30     0.393     17.10    0.0    0.0
  KS_PUMP1                99.96           1      0.00     16.13     26.10    46.918   5837.68    0.0    0.0
  KS_PUMP2                 0.00           0      0.00      0.00      0.00     0.000      0.00    0.0    0.0
  KS_PUMP3                 1.44           3      0.00     35.23     35.52     2.011    302.34    0.0    0.0
  KS_PUMP4                99.96           1      0.00     16.13     26.10    46.918   5837.68    0.0    0.0
  LA_PUMP1                50.32         531      0.00     12.53     28.80    24.752   2354.02    0.0    0.0
  LA_PUMP2                28.50          27      0.00      6.55     28.80     7.427    784.65    0.0    0.0
  LA_PUMP3                28.08           3      0.00      6.58      6.62     7.314    770.41    0.0    0.0
  LC_PUMP1                 6.12          22      0.00      0.08      0.39     0.020      0.97    0.0    0.0
  LC_PUMP2                27.10           1      0.00      0.12      0.13     0.126      9.51    0.0    0.0
  LE_PUMP1                22.35           1      0.00      0.14      0.14     0.122     15.48    0.0    0.0
  LE_PUMP2                38.67         198      0.00      0.25      0.70     0.430     43.12    0.0    0.0
  MOR_PUMP1               59.44         106      0.00      0.63      0.64     1.466     35.19    0.0    0.0
  MOR_PUMP2               26.70           3      0.00      0.98      0.98     1.033     18.00    0.0    0.0
  MOR_PUMP3               22.32           1      0.00      0.63      0.64     0.561      8.26    0.0    0.0
  MOR_PUMP4               20.06           1      0.00      0.98      0.98     0.776     10.16    0.0    0.0
  OA_PUMP1                63.85           2      0.00      0.05      0.07     0.097      1.11    0.0    0.0
  PE_PUMP1                47.21         416      0.00      0.56      0.61     1.080     17.13    0.0    0.0
  PE_PUMP2                22.26           6      0.00      0.55      0.61     0.485      8.95    0.0    0.0
  PE_PUMP3                15.21           1      0.00      0.56      0.61     0.338      5.55    0.0    0.0
  RB_PUMP1                45.04         262      0.00      0.10      0.46     0.184     14.33    0.0    0.0
  RB_PUMP2                18.92           1      0.00      0.08      0.08     0.061      5.07    0.0    0.0
  RO_PUMP1                30.38         123      0.00      1.08      2.86     1.357    137.72    0.0    0.0
  RO_PUMP2                23.19           2      0.00      0.98      1.06     0.911     96.25    0.0    0.0
  RT_PUMP1                28.57          18      0.00      0.25      0.68     0.287     40.88    0.0    0.0
  RT_PUMP2                20.88           1      0.00      0.23      0.24     0.190     28.00    0.0    0.0
  RW_PUMP1                19.12          55      0.00      0.65      1.24     0.487     35.24    0.0    0.0
  RW_PUMP2                 4.25           1      0.00      0.75      0.92     0.121      7.88    0.0    0.0
  SEM_PUMP1               33.85         124      0.00      0.10      0.50     0.135      6.18    0.0    0.0
  SEM_PUMP2               21.94           1      0.00      0.09      0.11     0.078      3.74    0.0    0.0
  SL_PUMP1                45.57          86      0.00      0.24      0.94     0.463     36.25    0.0    0.0
  SL_PUMP2                21.63           3      0.00      0.42      0.50     0.368     30.83    0.0    0.0
  ST_PUMP1                81.31          92      0.00      0.05      0.10     0.169      9.33    0.0    0.0
  ST_PUMP2                48.09           3      0.00      0.05      0.06     0.094      5.24    0.0    0.0
  VA_PUMP1                38.62         226      0.00      0.06      0.09     0.096      4.12    0.0    0.0
  VA_PUMP2                 7.54           6      0.00      0.15      0.17     0.045      2.24    0.0    0.0
  VIR_PUMP1               12.38          38      0.00      0.08      0.24     0.038      1.62    0.0    0.0
  VIR_PUMP2                1.32           1      0.00      0.10      0.12     0.005      0.20    0.0    0.0
  WL_PUMP1                58.04         144      0.00      0.30      1.75     0.820    187.51    0.0    0.0
  WL_PUMP2                25.81           1      0.00      0.23      0.25     0.239     57.29    0.0    0.0
  WTL_PUMP1               53.99          79      0.00      0.04      0.73     0.103      9.29    0.0    0.0
  WTL_PUMP2               41.76           1      0.00      0.04      0.05     0.061      5.28    0.0    0.0
  WT_PUMP1                32.57         191      0.00      0.42      0.82     0.579     51.02    0.0    0.0
  WT_PUMP2                18.81           1      0.00      0.34      0.35     0.254     28.63    0.0    0.0
  

  Analysis begun on:  Fri Nov 29 10:33:26 2019
  Analysis ended on:  Fri Nov 29 10:34:44 2019
  Total elapsed time: 00:01:18