
  EPA STORM WATER MANAGEMENT MODEL - VERSION 5.1 (Build 5.1.013)
  --------------------------------------------------------------

  WARNING 03: negative offset ignored for Link 63870
  WARNING 03: negative offset ignored for Link 64039
  WARNING 03: negative offset ignored for Link 64078
  WARNING 04: minimum elevation drop used for Conduit 64448
  WARNING 04: minimum elevation drop used for Conduit 64842
  WARNING 04: minimum elevation drop used for Conduit 64887
  WARNING 04: minimum elevation drop used for Conduit 65973
  WARNING 04: minimum elevation drop used for Conduit 73105
  WARNING 04: minimum elevation drop used for Conduit 82085
  WARNING 03: negative offset ignored for Link 98583
  WARNING 04: minimum elevation drop used for Conduit 98583
  WARNING 03: negative offset ignored for Link 98589
  WARNING 04: minimum elevation drop used for Conduit 98589
  WARNING 03: negative offset ignored for Link 98590
  WARNING 04: minimum elevation drop used for Conduit 98590
  WARNING 04: minimum elevation drop used for Conduit CDT-13
  WARNING 03: negative offset ignored for Link CDT-15
  WARNING 04: minimum elevation drop used for Conduit DUMMY_CASINO_STP_INLET
  WARNING 04: minimum elevation drop used for Conduit OF_SPS601_PIPE
  WARNING 04: minimum elevation drop used for Conduit OF_SPS604_PIPE
  WARNING 04: minimum elevation drop used for Conduit OF_SPS610_PIPE
  WARNING 02: maximum depth increased for Node 60613
  WARNING 02: maximum depth increased for Node 61466
  
  *********************************************************
  NOTE: The summary statistics displayed in this report are
  based on results found at every computational time step,  
  not just on results from each reporting time step.
  *********************************************************
  
  ****************
  Analysis Options
  ****************
  Flow Units ............... LPS
  Process Models:
    Rainfall/Runoff ........ NO
    RDII ................... NO
    Snowmelt ............... NO
    Groundwater ............ NO
    Flow Routing ........... YES
    Ponding Allowed ........ NO
    Water Quality .......... NO
  Flow Routing Method ...... DYNWAVE
  Surcharge Method ......... EXTRAN
  Starting Date ............ 09/26/2018 00:00:00
  Ending Date .............. 09/27/2018 00:00:00
  Antecedent Dry Days ...... 5.0
  Report Time Step ......... 00:01:00
  Routing Time Step ........ 1.00 sec
  Variable Time Step ....... YES
  Maximum Trials ........... 8
  Number of Threads ........ 1
  Head Tolerance ........... 0.000010 m
  
  
  *********************
  Control Actions Taken
  *********************

  
  **************************        Volume        Volume
  Flow Routing Continuity        hectare-m      10^6 ltr
  **************************     ---------     ---------
  Dry Weather Inflow .......         0.232         2.316
  Wet Weather Inflow .......         0.000         0.000
  Groundwater Inflow .......         0.000         0.000
  RDII Inflow ..............         0.000         0.000
  External Inflow ..........         0.000         0.000
  External Outflow .........         0.176         1.763
  Flooding Loss ............         0.000         0.000
  Evaporation Loss .........         0.000         0.000
  Exfiltration Loss ........         0.000         0.000
  Initial Stored Volume ....         0.000         0.000
  Final Stored Volume ......         0.068         0.679
  Continuity Error (%) .....        -5.401
  
  
  *************************
  Highest Continuity Errors
  *************************
  Node 60999 (-37.29%)
  Node 61648 (37.28%)
  Node JCT-48 (25.15%)
  Node JCT-30 (20.16%)
  Node JCT-52 (17.41%)
  
  
  ***************************
  Time-Step Critical Elements
  ***************************
  Link DUMMY_CASINO_STP_INLET (70.84%)
  
  
  ********************************
  Highest Flow Instability Indexes
  ********************************
  Link 64039 (3)
  Link 64664 (2)
  Link CDT-15 (1)
  
  
  *************************
  Routing Time Step Summary
  *************************
  Minimum Time Step           :     0.23 sec
  Average Time Step           :     0.88 sec
  Maximum Time Step           :     1.00 sec
  Percent in Steady State     :    -0.00
  Average Iterations per Step :     6.03
  Percent Not Converging      :    56.95
  
  
  ******************
  Node Depth Summary
  ******************
  
  ---------------------------------------------------------------------------------
                                 Average  Maximum  Maximum  Time of Max    Reported
                                   Depth    Depth      HGL   Occurrence   Max Depth
  Node                 Type       Meters   Meters   Meters  days hr:min      Meters
  ---------------------------------------------------------------------------------
  60077                JUNCTION     0.01     0.01    23.93     0  03:53        0.01
  60078                JUNCTION     0.01     0.01    23.37     0  08:56        0.01
  60079                JUNCTION     0.00     0.00    26.10     0  01:55        0.00
  60080                JUNCTION     0.00     0.00    25.05     0  03:35        0.00
  60081                JUNCTION     0.01     0.01    24.77     0  03:59        0.01
  60082                JUNCTION     0.01     0.01    24.47     0  04:22        0.01
  60083                JUNCTION     0.01     0.01    23.11     0  05:14        0.01
  60084                JUNCTION     0.01     0.01    22.97     0  04:25        0.01
  60085                JUNCTION     0.00     0.00    27.93     0  00:20        0.00
  60086                JUNCTION     0.00     0.01    26.52     0  02:31        0.01
  60087                JUNCTION     0.00     0.00    27.41     0  05:40        0.00
  60088                JUNCTION     0.00     0.00    27.82     0  02:06        0.00
  60089                JUNCTION     0.00     0.00    28.92     0  01:54        0.00
  60090                JUNCTION     0.00     0.00    30.82     0  02:33        0.00
  60091                JUNCTION     0.00     0.00    31.02     0  00:07        0.00
  60092                JUNCTION     0.00     0.00    33.60     0  10:35        0.00
  60093                JUNCTION     0.00     0.00    36.17     0  00:00        0.00
  60094                JUNCTION     0.00     0.00    34.13     0  00:00        0.00
  60095                JUNCTION     0.01     0.01    33.82     0  11:25        0.01
  60096                JUNCTION     0.01     0.01    32.45     0  17:28        0.01
  60097                JUNCTION     0.01     0.01    32.23     0  03:42        0.01
  60098                JUNCTION     0.00     0.00    35.05     0  00:08        0.00
  60099                JUNCTION     0.00     0.00    36.67     0  00:04        0.00
  60100                JUNCTION     0.01     0.01    31.76     0  03:23        0.01
  60101                JUNCTION     0.01     0.01    29.98     0  04:24        0.01
  60102                JUNCTION     0.01     0.01    29.71     0  10:35        0.01
  60103                JUNCTION     0.00     0.00    33.41     0  01:56        0.00
  60104                JUNCTION     0.01     0.06    36.18     0  16:59        0.06
  60105                JUNCTION     0.01     0.01    28.49     0  07:58        0.01
  60106                JUNCTION     0.00     0.00    40.61     0  00:05        0.00
  60107                JUNCTION     0.00     0.00    39.82     0  02:06        0.00
  60108                JUNCTION     0.00     0.00    38.17     0  02:00        0.00
  60109                JUNCTION     0.01     0.01    29.98     0  03:27        0.01
  60110                JUNCTION     0.01     0.01    25.78     0  03:39        0.01
  60111                JUNCTION     0.00     0.00    31.42     0  00:04        0.00
  60112                JUNCTION     0.01     0.01    27.40     0  03:21        0.01
  60113                JUNCTION     0.01     0.01    27.07     0  03:32        0.01
  60114                JUNCTION     0.00     0.00    34.99     0  00:04        0.00
  60115                JUNCTION     0.00     0.00    33.06     0  00:45        0.00
  60116                JUNCTION     0.01     0.01    31.84     0  00:32        0.01
  60117                JUNCTION     0.00     0.00    31.49     0  00:43        0.00
  60118                JUNCTION     0.01     0.03    34.14     0  17:00        0.03
  60119                JUNCTION     0.01     0.03    29.95     0  17:01        0.03
  60120                JUNCTION     0.01     0.04    29.51     0  17:01        0.04
  60121                JUNCTION     0.01     0.04    28.40     0  17:03        0.04
  60122                JUNCTION     0.00     0.00    36.39     0  02:25        0.00
  60123                JUNCTION     0.00     0.00    34.70     0  02:05        0.00
  60124                JUNCTION     0.00     0.00    37.41     0  02:02        0.00
  60125                JUNCTION     0.00     0.00    36.39     0  01:44        0.00
  60126                JUNCTION     0.01     0.01    33.91     0  16:17        0.01
  60127                JUNCTION     0.00     0.00    33.68     0  03:26        0.00
  60128                JUNCTION     0.00     0.00    36.09     0  00:41        0.00
  60129                JUNCTION     0.00     0.00    32.48     0  01:04        0.00
  60130                JUNCTION     0.00     0.00    30.81     0  04:01        0.00
  60131                JUNCTION     0.01     0.03    28.04     0  17:04        0.03
  60132                JUNCTION     0.02     0.04    27.83     0  17:05        0.04
  60133                JUNCTION     0.00     0.00    37.26     0  01:05        0.00
  60134                JUNCTION     0.02     0.04    27.50     0  17:09        0.04
  60135                JUNCTION     0.00     0.00    31.56     0  00:04        0.00
  60136                JUNCTION     0.01     0.02    26.57     0  17:10        0.02
  60137                JUNCTION     0.02     0.03    25.78     0  17:12        0.03
  60138                JUNCTION     0.03     0.04    25.14     0  17:18        0.04
  60139                JUNCTION     0.00     0.00    29.63     0  01:29        0.00
  60140                JUNCTION     0.01     0.01    28.10     0  08:23        0.01
  60141                JUNCTION     0.02     0.03    24.77     0  17:23        0.03
  60142                JUNCTION     0.01     0.01    25.24     0  22:47        0.01
  60143                JUNCTION     0.01     0.01    24.91     0  03:51        0.01
  60144                JUNCTION     0.01     0.01    23.72     0  06:49        0.01
  60145                JUNCTION     0.01     0.01    26.70     0  04:47        0.01
  60146                JUNCTION     0.01     0.01    26.02     0  03:23        0.01
  60147                JUNCTION     0.00     0.00    30.30     0  01:03        0.00
  60148                JUNCTION     0.02     0.02    25.74     0  11:31        0.02
  60149                JUNCTION     0.01     0.01    25.49     0  05:31        0.01
  60150                JUNCTION     0.00     0.00    28.16     0  02:21        0.00
  60151                JUNCTION     0.00     0.00    27.04     0  03:07        0.00
  60152                JUNCTION     0.01     0.01    26.20     0  04:00        0.01
  60153                JUNCTION     0.01     0.01    25.61     0  09:17        0.01
  60154                JUNCTION     0.00     0.00    24.10     0  04:34        0.00
  60155                JUNCTION     0.02     0.02    20.93     0  09:15        0.02
  60156                JUNCTION     0.01     0.05    28.35     0  08:20        0.05
  60157                JUNCTION     0.01     0.05    27.65     0  20:10        0.05
  60158                JUNCTION     0.00     0.03    26.07     0  08:20        0.03
  60159                JUNCTION     0.02     0.02    22.52     0  17:28        0.02
  60160                JUNCTION     0.14     0.50    22.27     0  05:23        0.49
  60161                JUNCTION     0.01     0.01    23.26     0  00:21        0.01
  60162                JUNCTION     0.00     0.00    27.15     0  00:41        0.00
  60163                JUNCTION     0.00     0.00    24.00     0  01:12        0.00
  60164                JUNCTION     0.01     0.01    23.78     0  00:25        0.01
  60165                JUNCTION     0.01     0.01    23.45     0  00:37        0.01
  60166                JUNCTION     0.01     0.01    20.68     0  01:01        0.01
  60167                JUNCTION     0.02     0.02    20.14     0  01:24        0.02
  60168                JUNCTION     0.01     0.01    21.94     0  04:24        0.01
  60169                JUNCTION     0.01     0.01    22.17     0  18:48        0.01
  60170                JUNCTION     0.01     0.01    22.46     0  01:53        0.01
  60171                JUNCTION     0.02     0.02    19.69     0  01:32        0.02
  60172                JUNCTION     0.00     0.00    22.55     0  00:10        0.00
  60173                JUNCTION     0.00     0.00    21.50     0  06:17        0.00
  60174                JUNCTION     0.00     0.00    22.55     0  00:23        0.00
  60175                JUNCTION     0.00     0.00    22.45     0  00:31        0.00
  60176                JUNCTION     0.02     0.02    18.80     0  01:36        0.02
  60177                JUNCTION     0.02     0.02    18.12     0  01:37        0.02
  60178                JUNCTION     0.00     0.00    21.01     0  01:16        0.00
  60179                JUNCTION     0.02     0.02    17.83     0  01:41        0.02
  60180                JUNCTION     0.02     0.03    17.03     0  23:31        0.03
  60182                JUNCTION     0.00     0.00    22.30     0  00:06        0.00
  60183                JUNCTION     0.00     0.00    21.35     0  02:04        0.00
  60184                JUNCTION     0.00     0.00    25.03     0  02:03        0.00
  60185                JUNCTION     0.00     0.00    19.23     0  00:10        0.00
  60186                JUNCTION     0.00     0.00    25.17     0  00:49        0.00
  60187                JUNCTION     0.00     0.01    24.77     0  00:07        0.01
  60188                JUNCTION     0.00     0.01    24.52     0  00:13        0.01
  60189                JUNCTION     0.00     0.00    21.99     0  00:22        0.00
  60190                JUNCTION     0.01     0.01    17.36     0  02:02        0.01
  60191                JUNCTION     0.00     0.00    25.39     0  00:19        0.00
  60192                JUNCTION     0.00     0.00    23.73     0  00:25        0.00
  60193                JUNCTION     0.00     0.00    21.55     0  00:28        0.00
  60194                JUNCTION     0.00     0.00    27.00     0  00:32        0.00
  60195                JUNCTION     0.01     0.01    21.27     0  01:33        0.01
  60196                JUNCTION     0.05     0.06    17.26     0  23:29        0.06
  60197                JUNCTION     0.02     0.02    19.79     0  01:33        0.02
  60198                JUNCTION     0.02     0.02    20.90     0  01:30        0.02
  60199                JUNCTION     0.02     0.02    21.32     0  01:30        0.02
  60200                JUNCTION     0.02     0.02    22.35     0  01:28        0.02
  60201                JUNCTION     0.02     0.02    23.23     0  01:26        0.02
  60202                JUNCTION     0.03     0.03    23.31     0  01:24        0.03
  60203                JUNCTION     0.02     0.02    23.51     0  01:23        0.02
  60204                JUNCTION     0.00     0.00    24.63     0  02:32        0.00
  60205                JUNCTION     0.00     0.00    23.80     0  08:21        0.00
  60206                JUNCTION     0.02     0.02    23.68     0  01:22        0.02
  60208                JUNCTION     0.00     0.00    27.41     0  00:37        0.00
  60209                JUNCTION     0.01     0.01    26.81     0  02:30        0.01
  60210                JUNCTION     0.01     0.01    26.76     0  00:19        0.01
  60211                JUNCTION     0.01     0.01    26.11     0  00:34        0.01
  60212                JUNCTION     0.02     0.02    23.93     0  01:19        0.02
  60213                JUNCTION     0.02     0.02    24.22     0  01:16        0.02
  60214                JUNCTION     0.00     0.00    29.48     0  01:03        0.00
  60215                JUNCTION     0.00     0.00    31.32     0  00:06        0.00
  60216                JUNCTION     0.00     0.00    30.60     0  00:10        0.00
  60217                JUNCTION     0.00     0.00    30.35     0  00:12        0.00
  60218                JUNCTION     0.01     0.01    28.85     0  00:29        0.01
  60219                JUNCTION     0.01     0.01    27.80     0  00:37        0.01
  60220                JUNCTION     0.02     0.02    24.54     0  01:12        0.02
  60221                JUNCTION     0.02     0.02    24.77     0  01:04        0.02
  60222                JUNCTION     0.02     0.02    25.04     0  00:53        0.02
  60223                JUNCTION     0.02     0.02    25.42     0  01:03        0.02
  60224                JUNCTION     0.02     0.02    26.00     0  00:57        0.02
  60225                JUNCTION     0.02     0.02    26.36     0  00:52        0.02
  60226                JUNCTION     0.02     0.02    26.56     0  00:47        0.02
  60227                JUNCTION     0.01     0.01    31.11     0  00:48        0.01
  60228                JUNCTION     0.01     0.01    31.75     0  00:20        0.01
  60229                JUNCTION     0.00     0.00    32.49     0  01:12        0.00
  60230                JUNCTION     0.01     0.01    32.48     0  01:47        0.01
  60231                JUNCTION     0.00     0.00    33.77     0  03:21        0.00
  60232                JUNCTION     0.00     0.00    35.81     0  01:37        0.00
  60233                JUNCTION     0.00     0.00    36.50     0  01:18        0.00
  60234                JUNCTION     0.01     0.01    27.09     0  00:47        0.01
  60235                JUNCTION     0.02     0.02    27.36     0  00:36        0.02
  60236                JUNCTION     0.01     0.01    27.85     0  04:31        0.01
  60237                JUNCTION     0.01     0.01    30.25     0  00:56        0.01
  60238                JUNCTION     0.01     0.01    31.43     0  00:51        0.01
  60239                JUNCTION     0.00     0.00    34.39     0  00:50        0.00
  60240                JUNCTION     0.01     0.01    35.22     0  00:43        0.01
  60241                JUNCTION     0.00     0.00    38.66     0  00:37        0.00
  60242                JUNCTION     0.01     0.01    35.06     0  01:27        0.01
  60243                JUNCTION     0.01     0.01    38.89     0  00:02        0.01
  60245                JUNCTION     0.01     0.01    34.18     0  01:09        0.01
  60246                JUNCTION     0.01     0.01    31.07     0  01:15        0.01
  60247                JUNCTION     0.02     0.02    28.98     0  03:19        0.02
  60253                JUNCTION     0.02     0.02    28.49     0  02:34        0.02
  60254                JUNCTION     0.02     0.02    28.00     0  03:39        0.02
  60255                JUNCTION     0.02     0.02    27.59     0  16:35        0.02
  60256                JUNCTION     0.02     0.02    27.25     0  10:51        0.02
  60257                JUNCTION     0.02     0.02    26.61     0  20:52        0.02
  60258                JUNCTION     0.00     0.00    39.17     0  11:06        0.00
  60259                JUNCTION     0.00     0.00    38.81     0  13:59        0.00
  60260                JUNCTION     0.00     0.00    39.66     0  17:37        0.00
  60261                JUNCTION     0.00     0.00    39.50     0  06:44        0.00
  60262                JUNCTION     0.01     0.01    42.41     0  04:04        0.01
  60263                JUNCTION     0.00     0.00    42.24     0  04:04        0.00
  60264                JUNCTION     0.00     0.00    40.79     0  02:29        0.00
  60265                JUNCTION     0.00     0.00    41.24     0  01:32        0.00
  60266                JUNCTION     0.00     0.00    38.10     0  02:09        0.00
  60267                JUNCTION     0.00     0.00    36.39     0  02:17        0.00
  60268                JUNCTION     0.01     0.01    31.48     0  10:23        0.01
  60269                JUNCTION     0.00     0.00    35.90     0  00:03        0.00
  60270                JUNCTION     0.00     0.00    32.62     0  00:07        0.00
  60271                JUNCTION     0.01     0.01    30.03     0  06:50        0.01
  60272                JUNCTION     0.01     0.01    31.91     0  01:38        0.01
  60273                JUNCTION     0.02     0.02    23.94     0  20:59        0.02
  60274                JUNCTION     0.02     0.03    23.52     0  08:00        0.03
  60275                JUNCTION     0.00     0.00    27.78     0  01:14        0.00
  60276                JUNCTION     0.00     0.00    32.43     0  01:15        0.00
  60277                JUNCTION     0.01     0.01    26.84     0  18:21        0.01
  60278                JUNCTION     0.00     0.00    31.87     0  00:05        0.00
  60279                JUNCTION     0.01     0.01    27.73     0  04:04        0.01
  60280                JUNCTION     0.01     0.01    27.86     0  05:11        0.01
  60281                JUNCTION     0.00     0.00    29.96     0  00:47        0.00
  60282                JUNCTION     0.01     0.01    29.01     0  09:41        0.01
  60283                JUNCTION     0.00     0.00    34.51     0  00:05        0.00
  60284                JUNCTION     0.00     0.00    36.89     0  03:52        0.00
  60285                JUNCTION     0.00     0.00    39.15     0  01:28        0.00
  60286                JUNCTION     0.05     0.05    29.87     0  07:03        0.05
  60287                JUNCTION     0.02     0.03    29.80     0  17:42        0.03
  60288                JUNCTION     0.05     0.06    25.50     0  18:28        0.06
  60289                JUNCTION     0.05     0.06    25.64     0  18:24        0.06
  60290                JUNCTION     0.05     0.06    25.79     0  18:20        0.06
  60291                JUNCTION     0.05     0.06    25.35     0  18:32        0.06
  60292                JUNCTION     0.05     0.06    25.21     0  18:36        0.06
  60293                JUNCTION     0.05     0.06    25.06     0  18:41        0.06
  60294                JUNCTION     0.06     0.07    24.97     0  18:45        0.07
  60295                JUNCTION     0.06     0.07    24.82     0  18:46        0.07
  60296                JUNCTION     0.05     0.06    24.72     0  01:56        0.06
  60297                JUNCTION     0.05     0.06    24.58     0  02:02        0.06
  60298                JUNCTION     0.01     0.01    31.92     0  01:32        0.01
  60299                JUNCTION     0.02     0.02    31.49     0  01:38        0.02
  60300                JUNCTION     0.02     0.02    30.80     0  01:48        0.02
  60301                JUNCTION     0.02     0.02    30.37     0  02:03        0.02
  60302                JUNCTION     0.00     0.01    32.19     0  00:11        0.01
  60303                JUNCTION     0.01     0.01    31.59     0  09:42        0.01
  60304                JUNCTION     0.00     0.00    36.27     0  02:13        0.00
  60305                JUNCTION     0.00     0.00    37.00     0  02:09        0.00
  60306                JUNCTION     0.03     0.03    28.49     0  22:43        0.03
  60307                JUNCTION     0.02     0.02    28.27     0  14:50        0.02
  60308                JUNCTION     0.05     0.07    25.94     0  19:09        0.07
  60309                JUNCTION     0.05     0.07    26.01     0  19:07        0.07
  60310                JUNCTION     0.05     0.07    26.07     0  19:05        0.07
  60311                JUNCTION     0.00     0.00    31.05     0  10:33        0.00
  60312                JUNCTION     0.00     0.00    35.52     0  03:15        0.00
  60313                JUNCTION     0.00     0.00    39.20     0  04:33        0.00
  60314                JUNCTION     0.00     0.00    41.55     0  02:30        0.00
  60315                JUNCTION     0.05     0.07    26.16     0  09:35        0.07
  60316                JUNCTION     0.00     0.00    32.34     0  00:23        0.00
  60317                JUNCTION     0.00     0.00    35.79     0  00:12        0.00
  60318                JUNCTION     0.00     0.00    41.89     0  01:27        0.00
  60319                JUNCTION     0.05     0.06    26.21     0  18:08        0.06
  60320                JUNCTION     0.05     0.06    26.27     0  18:06        0.06
  60321                JUNCTION     0.05     0.06    26.33     0  18:04        0.06
  60322                JUNCTION     0.00     0.00    30.51     0  06:45        0.00
  60323                JUNCTION     0.01     0.01    33.35     0  01:27        0.01
  60324                JUNCTION     0.00     0.00    37.73     0  04:56        0.00
  60325                JUNCTION     0.01     0.01    37.81     0  01:33        0.01
  60326                JUNCTION     0.00     0.00    40.34     0  02:15        0.00
  60327                JUNCTION     0.00     0.00    42.07     0  00:47        0.00
  60328                JUNCTION     0.00     0.00    43.74     0  02:00        0.00
  60329                JUNCTION     0.00     0.00    37.62     0  06:24        0.00
  60330                JUNCTION     0.01     0.01    30.26     0  00:27        0.01
  60331                JUNCTION     0.01     0.01    30.08     0  00:37        0.01
  60332                JUNCTION     0.01     0.01    29.51     0  00:43        0.01
  60333                JUNCTION     0.01     0.01    32.79     0  05:27        0.01
  60334                JUNCTION     0.01     0.01    38.12     0  06:01        0.01
  60335                JUNCTION     0.00     0.00    40.20     0  03:36        0.00
  60336                JUNCTION     0.00     0.00    41.14     0  00:07        0.00
  60337                JUNCTION     0.00     0.00    42.12     0  00:19        0.00
  60338                JUNCTION     0.00     0.00    38.45     0  02:05        0.00
  60339                JUNCTION     0.01     0.01    40.56     0  20:35        0.01
  60340                JUNCTION     0.00     0.00    42.04     0  00:37        0.00
  60341                JUNCTION     0.05     0.06    24.43     0  02:08        0.06
  60342                JUNCTION     0.05     0.06    24.28     0  19:01        0.06
  60343                JUNCTION     0.05     0.06    24.21     0  02:15        0.06
  60344                JUNCTION     0.05     0.06    24.14     0  02:19        0.06
  60345                JUNCTION     0.01     0.01    27.36     0  00:44        0.01
  60346                JUNCTION     0.01     0.01    33.49     0  01:21        0.01
  60347                JUNCTION     0.02     0.02    33.60     0  01:12        0.02
  60348                JUNCTION     0.00     0.00    37.71     0  00:28        0.00
  60349                JUNCTION     0.00     0.00    39.50     0  00:18        0.00
  60350                JUNCTION     0.01     0.01    33.90     0  02:18        0.01
  60351                JUNCTION     0.01     0.01    36.26     0  02:13        0.01
  60352                JUNCTION     0.00     0.00    43.64     0  00:03        0.00
  60353                JUNCTION     0.01     0.01    38.67     0  01:50        0.01
  60354                JUNCTION     0.00     0.00    42.35     0  00:32        0.00
  60355                JUNCTION     0.00     0.00    44.58     0  00:06        0.00
  60356                JUNCTION     0.00     0.00    41.95     0  03:21        0.00
  60357                JUNCTION     0.00     0.00    48.62     0  01:29        0.00
  60358                JUNCTION     0.01     0.01    44.67     0  07:44        0.01
  60359                JUNCTION     0.00     0.00    44.51     0  04:02        0.00
  60360                JUNCTION     0.00     0.00    42.49     0  14:58        0.00
  60361                JUNCTION     0.01     0.01    37.37     0  05:57        0.01
  60362                JUNCTION     0.00     0.00    38.60     0  02:27        0.00
  60363                JUNCTION     0.01     0.01    36.32     0  06:36        0.01
  60364                JUNCTION     0.00     0.00    46.23     0  00:35        0.00
  60365                JUNCTION     0.00     0.00    43.80     0  05:53        0.00
  60366                JUNCTION     0.01     0.01    42.00     0  01:42        0.01
  60367                JUNCTION     0.01     0.01    38.09     0  02:32        0.01
  60368                JUNCTION     0.01     0.01    35.43     0  02:58        0.01
  60369                JUNCTION     0.01     0.01    34.30     0  06:49        0.01
  60370                JUNCTION     0.01     0.01    32.84     0  05:11        0.01
  60371                JUNCTION     0.02     0.02    32.36     0  23:08        0.02
  60372                JUNCTION     0.02     0.02    33.01     0  23:52        0.02
  60373                JUNCTION     0.02     0.02    31.92     0  12:21        0.02
  60374                JUNCTION     0.01     0.01    31.51     0  02:24        0.01
  60375                JUNCTION     0.00     0.00    36.48     0  02:00        0.00
  60377                JUNCTION     0.01     0.01    31.60     0  00:02        0.01
  60378                JUNCTION     0.01     0.01    29.81     0  01:28        0.01
  60379                JUNCTION     0.03     0.06    27.79     0  17:47        0.06
  60380                JUNCTION     0.03     0.06    27.69     0  17:49        0.06
  60381                JUNCTION     0.03     0.05    27.44     0  17:50        0.05
  60382                JUNCTION     0.03     0.05    27.15     0  09:18        0.05
  60383                JUNCTION     0.00     0.00    30.78     0  02:19        0.00
  60384                JUNCTION     0.00     0.00    34.43     0  01:12        0.00
  60385                JUNCTION     0.03     0.06    27.06     0  09:19        0.06
  60386                JUNCTION     0.03     0.06    26.86     0  09:22        0.06
  60387                JUNCTION     0.01     0.01    28.12     0  00:46        0.01
  60388                JUNCTION     0.01     0.01    28.81     0  00:33        0.01
  60389                JUNCTION     0.00     0.00    31.42     0  00:40        0.00
  60390                JUNCTION     0.00     0.00    33.87     0  00:12        0.00
  60391                JUNCTION     0.05     0.06    26.39     0  18:03        0.06
  60392                JUNCTION     0.05     0.06    26.46     0  12:19        0.06
  60393                JUNCTION     0.01     0.01    31.05     0  01:54        0.01
  60394                JUNCTION     0.00     0.00    36.72     0  01:32        0.00
  60395                JUNCTION     0.00     0.00    41.00     0  00:05        0.00
  60396                JUNCTION     0.05     0.06    26.50     0  12:17        0.06
  60397                JUNCTION     0.03     0.05    26.56     0  12:16        0.05
  60398                JUNCTION     0.04     0.04    26.58     0  01:07        0.04
  60399                JUNCTION     0.03     0.03    26.73     0  01:05        0.03
  60400                JUNCTION     0.03     0.03    27.03     0  01:03        0.03
  60401                JUNCTION     0.00     0.00    28.07     0  00:00        0.00
  60402                JUNCTION     0.00     0.00    28.84     0  11:16        0.00
  60403                JUNCTION     0.00     0.00    32.43     0  11:16        0.00
  60404                JUNCTION     0.00     0.00    37.34     0  02:01        0.00
  60405                JUNCTION     0.01     0.01    28.39     0  04:29        0.01
  60406                JUNCTION     0.01     0.01    29.36     0  02:06        0.01
  60407                JUNCTION     0.00     0.00    33.95     0  00:27        0.00
  60408                JUNCTION     0.00     0.00    37.71     0  00:19        0.00
  60409                JUNCTION     0.00     0.00    38.29     0  00:13        0.00
  60410                JUNCTION     0.00     0.00    39.67     0  00:13        0.00
  60411                JUNCTION     0.00     0.00    41.06     0  00:06        0.00
  60412                JUNCTION     0.01     0.01    30.52     0  03:21        0.01
  60413                JUNCTION     0.01     0.01    31.24     0  03:26        0.01
  60414                JUNCTION     0.00     0.00    35.52     0  00:40        0.00
  60415                JUNCTION     0.01     0.01    31.57     0  04:25        0.01
  60416                JUNCTION     0.00     0.00    36.13     0  01:30        0.00
  60417                JUNCTION     0.00     0.00    38.45     0  04:19        0.00
  60418                JUNCTION     0.00     0.00    39.97     0  02:09        0.00
  60419                JUNCTION     0.00     0.00    42.00     0  02:03        0.00
  60420                JUNCTION     0.00     0.00    38.71     0  01:28        0.00
  60421                JUNCTION     0.01     0.01    34.71     0  17:21        0.01
  60422                JUNCTION     0.00     0.00    34.56     0  09:40        0.00
  60423                JUNCTION     0.01     0.01    30.55     0  00:17        0.01
  60424                JUNCTION     0.06     0.07    24.01     0  19:10        0.07
  60425                JUNCTION     0.04     0.05    23.86     0  19:13        0.05
  60426                JUNCTION     0.00     0.00    41.30     0  01:39        0.00
  60427                JUNCTION     0.00     0.00    47.18     0  00:00        0.00
  60428                JUNCTION     0.00     0.00    44.51     0  00:23        0.00
  60429                JUNCTION     0.00     0.00    46.20     0  00:06        0.00
  60430                JUNCTION     0.00     0.00    48.11     0  01:27        0.00
  60431                JUNCTION     0.00     0.00    48.71     0  00:42        0.00
  60432                JUNCTION     0.00     0.00    47.08     0  02:42        0.00
  60433                JUNCTION     0.00     0.00    43.42     0  03:20        0.00
  60434                JUNCTION     0.00     0.00    39.62     0  04:44        0.00
  60435                JUNCTION     0.01     0.01    36.77     0  02:46        0.01
  60436                JUNCTION     0.00     0.00    43.46     0  02:17        0.00
  60437                JUNCTION     0.00     0.00    48.32     0  03:24        0.00
  60438                JUNCTION     0.00     0.00    49.48     0  01:53        0.00
  60439                JUNCTION     0.00     0.00    52.14     0  00:58        0.00
  60440                JUNCTION     0.01     0.01    35.52     0  06:59        0.01
  60441                JUNCTION     0.01     0.01    34.49     0  02:38        0.01
  60442                JUNCTION     0.01     0.01    35.79     0  00:52        0.01
  60443                JUNCTION     0.01     0.01    37.22     0  01:53        0.01
  60444                JUNCTION     0.00     0.00    41.92     0  02:47        0.00
  60445                JUNCTION     0.00     0.00    46.22     0  01:28        0.00
  60446                JUNCTION     0.02     0.02    30.74     0  11:11        0.02
  60447                JUNCTION     0.02     0.02    30.21     0  05:14        0.02
  60448                JUNCTION     0.02     0.02    29.68     0  12:18        0.02
  60449                JUNCTION     0.02     0.02    29.15     0  03:00        0.02
  60450                JUNCTION     0.00     0.00    30.93     0  02:33        0.00
  60451                JUNCTION     0.00     0.00    31.35     0  17:12        0.00
  60452                JUNCTION     0.03     0.03    28.63     0  00:55        0.03
  60453                JUNCTION     0.00     0.00    29.04     0  02:37        0.00
  60454                JUNCTION     0.00     0.00    29.90     0  02:13        0.00
  60455                JUNCTION     0.00     0.00    29.69     0  19:29        0.00
  60456                JUNCTION     0.00     0.00    29.36     0  02:58        0.00
  60457                JUNCTION     0.03     0.03    28.93     0  00:50        0.03
  60458                JUNCTION     0.03     0.03    28.33     0  00:55        0.03
  60459                JUNCTION     0.03     0.03    27.75     0  01:01        0.03
  60460                JUNCTION     0.00     0.00    28.93     0  00:05        0.00
  60461                JUNCTION     0.00     0.00    29.32     0  00:00        0.00
  60462                JUNCTION     0.00     0.00    30.82     0  01:53        0.00
  60463                JUNCTION     0.00     0.00    31.70     0  00:00        0.00
  60464                JUNCTION     0.00     0.00    33.88     0  00:08        0.00
  60465                JUNCTION     0.00     0.00    34.81     0  00:42        0.00
  60466                JUNCTION     0.00     0.00    33.05     0  02:04        0.00
  60467                JUNCTION     0.01     0.01    32.31     0  02:27        0.01
  60468                JUNCTION     0.00     0.00    35.70     0  00:06        0.00
  60469                JUNCTION     0.00     0.00    34.21     0  00:12        0.00
  60470                JUNCTION     0.00     0.00    47.60     0  02:24        0.00
  60471                JUNCTION     0.00     0.00    41.92     0  00:00        0.00
  60472                JUNCTION     0.00     0.00    38.04     0  02:04        0.00
  60473                JUNCTION     0.00     0.00    35.29     0  01:29        0.00
  60474                JUNCTION     0.01     0.01    33.59     0  01:30        0.01
  60475                JUNCTION     0.00     0.00    36.98     0  02:48        0.00
  60476                JUNCTION     0.00     0.00    39.91     0  01:12        0.00
  60477                JUNCTION     0.00     0.00    50.62     0  02:08        0.00
  60478                JUNCTION     0.00     0.00    36.77     0  00:04        0.00
  60479                JUNCTION     0.05     0.06    23.47     0  19:16        0.06
  60480                JUNCTION     0.05     0.06    23.33     0  19:20        0.06
  60481                JUNCTION     0.05     0.06    23.18     0  02:45        0.06
  60482                JUNCTION     0.05     0.06    23.04     0  02:51        0.06
  60483                JUNCTION     0.00     0.00    46.61     0  02:02        0.00
  60484                JUNCTION     0.01     0.01    41.57     0  01:32        0.01
  60485                JUNCTION     0.01     0.01    38.62     0  03:38        0.01
  60486                JUNCTION     0.01     0.01    38.12     0  03:43        0.01
  60487                JUNCTION     0.01     0.01    36.11     0  00:48        0.01
  60488                JUNCTION     0.01     0.01    36.28     0  00:27        0.01
  60489                JUNCTION     0.01     0.01    38.84     0  04:28        0.01
  60490                JUNCTION     0.00     0.00    42.20     0  18:36        0.00
  60491                JUNCTION     0.01     0.01    33.45     0  00:51        0.01
  60492                JUNCTION     0.01     0.01    31.81     0  00:53        0.01
  60493                JUNCTION     0.02     0.02    31.42     0  01:00        0.02
  60494                JUNCTION     0.01     0.01    31.11     0  00:43        0.01
  60495                JUNCTION     0.01     0.01    32.09     0  02:33        0.01
  60496                JUNCTION     0.00     0.00    33.79     0  00:58        0.00
  60497                JUNCTION     0.00     0.00    37.73     0  02:07        0.00
  60498                JUNCTION     0.00     0.00    41.31     0  02:00        0.00
  60499                JUNCTION     0.00     0.00    36.55     0  01:07        0.00
  60500                JUNCTION     0.00     0.00    39.36     0  01:03        0.00
  60501                JUNCTION     0.02     0.02    29.82     0  00:45        0.02
  60502                JUNCTION     0.01     0.01    31.66     0  00:19        0.01
  60503                JUNCTION     0.01     0.01    33.23     0  00:11        0.01
  60504                JUNCTION     0.01     0.01    31.47     0  00:34        0.01
  60505                JUNCTION     0.02     0.02    31.54     0  00:25        0.02
  60506                JUNCTION     0.01     0.01    32.08     0  07:04        0.01
  60507                JUNCTION     0.01     0.01    32.92     0  21:39        0.01
  60508                JUNCTION     0.00     0.00    35.72     0  02:08        0.00
  60509                JUNCTION     0.00     0.00    35.96     0  01:47        0.00
  60510                JUNCTION     0.01     0.01    31.73     0  05:49        0.01
  60511                JUNCTION     0.00     0.00    33.67     0  01:32        0.00
  60512                JUNCTION     0.00     0.00    35.60     0  00:46        0.00
  60513                JUNCTION     0.03     0.03    29.31     0  00:47        0.03
  60514                JUNCTION     0.01     0.01    29.54     0  01:49        0.01
  60515                JUNCTION     0.01     0.01    31.27     0  04:02        0.01
  60516                JUNCTION     0.01     0.01    31.43     0  06:48        0.01
  60517                JUNCTION     0.01     0.01    31.69     0  02:03        0.01
  60518                JUNCTION     0.00     0.00    35.10     0  02:05        0.00
  60519                JUNCTION     0.00     0.00    37.67     0  01:12        0.00
  60520                JUNCTION     0.02     0.02    35.83     0  12:54        0.02
  60521                JUNCTION     0.00     0.00    33.73     0  02:01        0.00
  60522                JUNCTION     0.00     0.00    32.69     0  00:59        0.00
  60523                JUNCTION     0.01     0.01    30.66     0  05:22        0.01
  60524                JUNCTION     0.00     0.00    30.47     0  02:00        0.00
  60525                JUNCTION     0.00     0.00    27.14     0  17:22        0.00
  60526                JUNCTION     0.01     0.01    23.52     0  02:05        0.01
  60527                JUNCTION     0.01     0.01    23.11     0  06:06        0.01
  60528                JUNCTION     0.05     0.06    22.60     0  22:30        0.06
  60529                JUNCTION     0.05     0.06    22.73     0  03:02        0.06
  60530                JUNCTION     0.05     0.06    22.89     0  02:56        0.06
  60531                JUNCTION     0.00     0.00    40.47     0  00:00        0.00
  60532                JUNCTION     0.00     0.00    40.15     0  00:00        0.00
  60533                JUNCTION     0.00     0.00    39.97     0  00:00        0.00
  60534                JUNCTION     0.00     0.00    39.70     0  00:25        0.00
  60535                JUNCTION     0.00     0.00    39.35     0  00:56        0.00
  60536                JUNCTION     0.00     0.00    38.80     0  00:50        0.00
  60537                JUNCTION     0.00     0.00    37.50     0  22:33        0.00
  60538                JUNCTION     0.00     0.00    45.65     0  00:00        0.00
  60539                JUNCTION     0.00     0.00    45.55     0  00:00        0.00
  60540                JUNCTION     0.00     0.00    44.86     0  08:22        0.00
  60541                JUNCTION     0.01     0.01    44.70     0  03:25        0.01
  60542                JUNCTION     0.01     0.01    44.61     0  09:36        0.01
  60543                JUNCTION     0.01     0.01    45.98     0  00:24        0.01
  60544                JUNCTION     0.01     0.01    44.41     0  07:07        0.01
  60545                JUNCTION     0.01     0.01    41.18     0  12:01        0.01
  60546                JUNCTION     0.00     0.00    46.58     0  01:29        0.00
  60547                JUNCTION     0.00     0.00    44.51     0  02:08        0.00
  60548                JUNCTION     0.01     0.01    40.76     0  03:13        0.01
  60549                JUNCTION     0.00     0.00    44.95     0  03:43        0.00
  60550                JUNCTION     0.01     0.01    40.30     0  05:08        0.01
  60551                JUNCTION     0.00     0.00    41.68     0  01:28        0.00
  60552                JUNCTION     0.00     0.00    46.00     0  02:00        0.00
  60553                JUNCTION     0.01     0.01    40.19     0  02:24        0.01
  60554                JUNCTION     0.00     0.00    42.42     0  00:23        0.00
  60555                JUNCTION     0.01     0.01    41.26     0  14:37        0.01
  60556                JUNCTION     0.00     0.00    39.02     0  06:51        0.00
  60557                JUNCTION     0.00     0.00    42.28     0  00:04        0.00
  60558                JUNCTION     0.00     0.00    39.15     0  01:04        0.00
  60559                JUNCTION     0.00     0.00    41.70     0  00:27        0.00
  60560                JUNCTION     0.01     0.01    40.11     0  00:09        0.01
  60561                JUNCTION     0.01     0.01    39.96     0  16:25        0.01
  60562                JUNCTION     0.01     0.01    39.85     0  03:04        0.01
  60563                JUNCTION     0.02     0.02    39.23     0  10:06        0.02
  60564                JUNCTION     0.01     0.01    39.02     0  04:33        0.01
  60565                JUNCTION     0.01     0.01    37.85     0  12:52        0.01
  60566                JUNCTION     0.02     0.02    35.83     0  10:57        0.02
  60567                JUNCTION     0.01     0.01    35.63     0  10:57        0.01
  60568                JUNCTION     0.01     0.01    33.66     0  08:24        0.01
  60569                JUNCTION     0.01     0.01    31.07     0  12:52        0.01
  60570                JUNCTION     0.02     0.02    29.09     0  12:53        0.02
  60571                JUNCTION     0.01     0.01    29.95     0  03:36        0.01
  60572                JUNCTION     0.01     0.01    31.36     0  06:31        0.01
  60573                JUNCTION     0.01     0.01    33.10     0  06:12        0.01
  60574                JUNCTION     0.01     0.01    33.53     0  02:21        0.01
  60575                JUNCTION     0.00     0.00    37.93     0  02:02        0.00
  60576                JUNCTION     0.00     0.00    36.80     0  02:21        0.00
  60577                JUNCTION     0.00     0.00    41.17     0  02:08        0.00
  60578                JUNCTION     0.00     0.00    41.20     0  14:13        0.00
  60579                JUNCTION     0.00     0.00    38.80     0  12:27        0.00
  60580                JUNCTION     0.01     0.01    34.50     0  03:12        0.01
  60581                JUNCTION     0.00     0.00    34.50     0  02:23        0.00
  60582                JUNCTION     0.00     0.00    37.39     0  00:06        0.00
  60583                JUNCTION     0.01     0.01    30.51     0  01:33        0.01
  60584                JUNCTION     0.01     0.01    31.53     0  08:21        0.01
  60585                JUNCTION     0.00     0.00    34.25     0  03:22        0.00
  60586                JUNCTION     0.00     0.00    34.97     0  08:21        0.00
  60587                JUNCTION     0.00     0.00    32.57     0  00:16        0.00
  60588                JUNCTION     0.00     0.00    32.35     0  00:28        0.00
  60589                JUNCTION     0.00     0.00    30.34     0  01:54        0.00
  60590                JUNCTION     0.02     0.02    27.89     0  04:01        0.02
  60591                JUNCTION     0.00     0.00    30.76     0  02:01        0.00
  60592                JUNCTION     0.00     0.00    28.98     0  02:07        0.00
  60593                JUNCTION     0.03     0.03    26.37     0  03:17        0.03
  60594                JUNCTION     0.03     0.03    26.17     0  09:29        0.03
  60595                JUNCTION     0.02     0.03    25.82     0  05:03        0.03
  60596                JUNCTION     0.01     0.01    26.71     0  01:18        0.01
  60597                JUNCTION     0.00     0.00    27.92     0  01:05        0.00
  60598                JUNCTION     0.03     0.03    25.22     0  20:36        0.03
  60599                JUNCTION     0.00     0.00    25.38     0  07:21        0.00
  60600                JUNCTION     0.02     0.02    24.82     0  17:38        0.02
  60601                JUNCTION     0.03     0.03    23.63     0  20:37        0.03
  60602                JUNCTION     0.01     0.01    23.70     0  05:28        0.01
  60603                JUNCTION     0.00     0.00    25.02     0  03:30        0.00
  60604                JUNCTION     0.00     0.00    26.05     0  03:01        0.00
  60605                JUNCTION     0.01     0.02    25.02     0  00:21        0.02
  60606                JUNCTION     0.01     0.01    26.04     0  02:42        0.01
  60607                JUNCTION     0.01     0.01    26.74     0  01:18        0.01
  60608                JUNCTION     0.05     0.06    22.53     0  03:07        0.06
  60609                JUNCTION     0.05     0.06    22.42     0  22:35        0.06
  60610                JUNCTION     0.06     0.07    22.30     0  22:38        0.07
  60611                JUNCTION     0.06     0.07    22.18     0  22:41        0.07
  60612                JUNCTION     0.01     0.01    38.15     0  09:28        0.01
  60613                JUNCTION     0.01     0.01    34.87     0  15:41        0.01
  60614                JUNCTION     0.00     0.00    35.31     0  19:33        0.00
  60615                JUNCTION     0.00     0.00    37.33     0  19:33        0.00
  60616                JUNCTION     0.01     0.01    34.56     0  23:41        0.01
  60617                JUNCTION     0.02     0.02    33.73     0  15:55        0.02
  60618                JUNCTION     0.01     0.01    33.61     0  23:42        0.01
  60619                JUNCTION     0.02     0.02    30.72     0  19:30        0.02
  60620                JUNCTION     0.01     0.01    32.74     0  00:09        0.01
  60621                JUNCTION     0.01     0.01    33.38     0  00:12        0.01
  60622                JUNCTION     0.00     0.00    35.47     0  00:10        0.00
  60623                JUNCTION     0.00     0.00    38.45     0  00:04        0.00
  60624                JUNCTION     0.00     0.00    36.23     0  00:51        0.00
  60625                JUNCTION     0.01     0.01    34.17     0  02:31        0.01
  60626                JUNCTION     0.01     0.01    32.31     0  03:18        0.01
  60627                JUNCTION     0.00     0.00    33.44     0  01:28        0.00
  60628                JUNCTION     0.00     0.00    34.03     0  06:11        0.00
  60629                JUNCTION     0.00     0.00    30.81     0  02:03        0.00
  60630                JUNCTION     0.00     0.00    32.95     0  01:12        0.00
  60631                JUNCTION     0.00     0.00    29.98     0  12:48        0.00
  60632                JUNCTION     0.00     0.00    31.33     0  02:01        0.00
  60633                JUNCTION     0.01     0.01    28.75     0  02:46        0.01
  60634                JUNCTION     0.00     0.00    29.39     0  00:56        0.00
  60635                JUNCTION     0.00     0.00    36.19     0  01:36        0.00
  60636                JUNCTION     0.00     0.00    35.26     0  02:35        0.00
  60637                JUNCTION     0.01     0.01    32.93     0  03:06        0.01
  60638                JUNCTION     0.00     0.00    32.72     0  03:58        0.00
  60639                JUNCTION     0.00     0.00    31.58     0  03:28        0.00
  60640                JUNCTION     0.01     0.01    29.51     0  02:26        0.01
  60641                JUNCTION     0.00     0.00    31.93     0  00:04        0.00
  60642                JUNCTION     0.00     0.00    29.96     0  01:15        0.00
  60643                JUNCTION     0.01     0.01    28.95     0  03:10        0.01
  60644                JUNCTION     0.00     0.00    29.61     0  01:12        0.00
  60645                JUNCTION     0.01     0.01    27.41     0  04:12        0.01
  60646                JUNCTION     0.00     0.00    28.04     0  01:27        0.00
  60647                JUNCTION     0.02     0.02    26.40     0  16:31        0.02
  60648                JUNCTION     0.01     0.01    27.42     0  13:58        0.01
  60649                JUNCTION     0.00     0.00    28.24     0  03:58        0.00
  60650                JUNCTION     0.01     0.01    28.65     0  15:16        0.01
  60651                JUNCTION     0.01     0.01    29.89     0  21:10        0.01
  60652                JUNCTION     0.02     0.02    30.13     0  20:59        0.02
  60653                JUNCTION     0.02     0.02    30.37     0  19:34        0.02
  60654                JUNCTION     0.00     0.00    33.19     0  00:08        0.00
  60655                JUNCTION     0.00     0.00    33.85     0  08:20        0.00
  60656                JUNCTION     0.00     0.00    31.09     0  00:10        0.00
  60657                JUNCTION     0.00     0.00    33.56     0  08:22        0.00
  60658                JUNCTION     0.03     0.03    26.43     0  17:58        0.03
  60659                JUNCTION     0.06     0.07    22.07     0  22:44        0.07
  60660                JUNCTION     0.06     0.07    21.96     0  22:45        0.07
  60661                JUNCTION     0.06     0.07    21.84     0  22:49        0.07
  60662                JUNCTION     0.04     0.04    21.65     0  22:51        0.04
  60663                JUNCTION     0.00     0.00    23.68     0  00:09        0.00
  60664                JUNCTION     0.02     0.02    26.16     0  21:06        0.02
  60665                JUNCTION     0.02     0.02    25.97     0  14:35        0.02
  60666                JUNCTION     0.03     0.03    25.69     0  23:45        0.03
  60667                JUNCTION     0.03     0.03    25.26     0  23:48        0.03
  60668                JUNCTION     0.02     0.02    24.85     0  23:34        0.02
  60669                JUNCTION     0.00     0.00    28.10     0  00:00        0.00
  60670                JUNCTION     0.00     0.00    26.91     0  02:12        0.00
  60671                JUNCTION     0.01     0.02    23.93     0  19:29        0.02
  60672                JUNCTION     0.02     0.03    20.63     0  01:03        0.03
  60673                JUNCTION     0.04     0.05    20.83     0  22:52        0.05
  60674                JUNCTION     0.04     0.05    20.37     0  22:54        0.05
  60675                JUNCTION     0.00     0.00    33.50     0  02:01        0.00
  60676                JUNCTION     0.02     0.02    21.09     0  13:59        0.02
  60677                JUNCTION     0.01     0.01    31.48     0  02:58        0.01
  60678                JUNCTION     0.00     0.00    30.71     0  00:39        0.00
  60679                JUNCTION     0.01     0.01    45.67     0  00:30        0.01
  60680                JUNCTION     0.44     0.76    23.76     0  16:21        0.76
  60681                JUNCTION     0.30     0.61    23.76     0  19:02        0.61
  60682                JUNCTION     0.00     0.00    24.96     0  01:28        0.00
  60683                JUNCTION     0.00     0.00    26.68     0  01:28        0.00
  60684                JUNCTION     0.00     0.00    23.80     0  00:00        0.00
  60685                JUNCTION     0.22     0.52    23.76     0  21:42        0.52
  60686                JUNCTION     0.10     0.35    23.76     0  21:42        0.34
  60687                JUNCTION     0.00     0.00    24.13     0  00:57        0.00
  60688                JUNCTION     0.05     0.07    26.10     0  21:46        0.07
  60689                JUNCTION     0.00     0.00    22.80     0  06:45        0.00
  60690                JUNCTION     0.00     0.00    41.28     0  01:21        0.00
  60691                JUNCTION     0.00     0.00    26.42     0  00:06        0.00
  60692                JUNCTION     0.02     0.02    19.02     0  00:34        0.02
  60693                JUNCTION     0.00     0.00    21.83     0  02:31        0.00
  60694                JUNCTION     0.02     0.02    21.91     0  01:00        0.02
  60695                JUNCTION     0.02     0.02    19.82     0  05:30        0.02
  60696                JUNCTION     0.01     0.01    20.51     0  04:37        0.01
  60697                JUNCTION     0.01     0.01    20.71     0  06:19        0.01
  60698                JUNCTION     0.00     0.00    22.40     0  00:00        0.00
  60699                JUNCTION     0.01     0.01    23.11     0  00:08        0.01
  60700                JUNCTION     0.01     0.01    22.11     0  04:28        0.01
  60701                JUNCTION     0.00     0.00    22.90     0  00:52        0.00
  60702                JUNCTION     0.00     0.00    22.50     0  07:01        0.00
  60703                JUNCTION     0.00     0.00    23.30     0  00:15        0.00
  60704                JUNCTION     0.01     0.01    23.21     0  00:06        0.01
  60705                JUNCTION     0.01     0.01    23.11     0  00:11        0.01
  60706                JUNCTION     0.01     0.01    22.87     0  00:36        0.01
  60707                JUNCTION     0.01     0.01    22.99     0  00:25        0.01
  60708                JUNCTION     0.01     0.01    23.21     0  00:20        0.01
  60709                JUNCTION     0.01     0.01    23.31     0  10:34        0.01
  60710                JUNCTION     0.00     0.00    25.80     0  01:28        0.00
  60711                JUNCTION     0.02     0.02    21.52     0  01:38        0.02
  60712                JUNCTION     0.01     0.01    21.01     0  01:41        0.01
  60713                JUNCTION     0.02     0.02    18.17     0  17:19        0.02
  60714                JUNCTION     0.00     0.00    20.95     0  00:15        0.00
  60715                JUNCTION     0.00     0.00    21.40     0  00:11        0.00
  60716                JUNCTION     0.03     0.03    18.43     0  15:52        0.03
  60717                JUNCTION     0.03     0.03    18.61     0  10:20        0.03
  60718                JUNCTION     0.03     0.03    18.77     0  08:10        0.03
  60719                JUNCTION     0.03     0.03    18.87     0  10:18        0.03
  60720                JUNCTION     0.02     0.02    19.46     0  05:37        0.02
  60721                JUNCTION     0.01     0.01    20.71     0  01:19        0.01
  60722                JUNCTION     0.00     0.00    21.50     0  00:10        0.00
  60723                JUNCTION     0.04     0.04    17.40     0  19:15        0.04
  60724                JUNCTION     0.04     0.04    17.20     0  18:02        0.04
  60725                JUNCTION     0.04     0.04    17.15     0  09:14        0.04
  60726                JUNCTION     0.04     0.04    17.00     0  06:08        0.04
  60727                JUNCTION     0.05     0.05    16.81     0  23:06        0.05
  60728                JUNCTION     0.03     0.03    17.03     0  03:54        0.03
  60729                JUNCTION     0.03     0.03    17.27     0  08:01        0.03
  60730                JUNCTION     0.00     0.00    22.10     0  00:56        0.00
  60731                JUNCTION     0.00     0.00    25.50     0  00:56        0.00
  60732                JUNCTION     0.03     0.03    17.45     0  05:56        0.03
  60733                JUNCTION     0.05     0.05    16.70     0  04:49        0.05
  60734                JUNCTION     0.00     0.00    21.20     0  02:29        0.00
  60735                JUNCTION     0.04     0.10    19.95     0  09:04        0.10
  60736                JUNCTION     0.00     0.00    22.51     0  01:32        0.00
  60737                JUNCTION     0.01     0.01    25.09     0  07:14        0.01
  60738                JUNCTION     0.00     0.00    26.56     0  01:32        0.00
  60739                JUNCTION     0.05     0.11    19.77     0  09:05        0.11
  60740                JUNCTION     0.05     0.12    19.66     0  09:07        0.12
  60741                JUNCTION     0.00     0.00    22.31     0  06:32        0.00
  60742                JUNCTION     0.01     0.01    22.81     0  16:49        0.01
  60743                JUNCTION     0.00     0.00    26.30     0  02:16        0.00
  60744                JUNCTION     0.00     0.00    27.47     0  01:24        0.00
  60745                JUNCTION     0.00     0.00    25.79     0  01:28        0.00
  60746                JUNCTION     0.01     0.01    24.42     0  02:31        0.01
  60747                JUNCTION     0.01     0.01    23.08     0  00:29        0.01
  60748                JUNCTION     0.05     0.12    19.52     0  09:10        0.12
  60749                JUNCTION     0.05     0.10    19.32     0  16:44        0.10
  60750                JUNCTION     0.03     0.03    17.69     0  04:13        0.03
  60751                JUNCTION     0.01     0.01    20.35     0  00:27        0.01
  60752                JUNCTION     0.01     0.01    21.81     0  00:22        0.01
  60753                JUNCTION     0.00     0.00    22.46     0  00:05        0.00
  60754                JUNCTION     0.01     0.01    22.39     0  00:10        0.01
  60755                JUNCTION     0.03     0.03    17.86     0  04:54        0.03
  60756                JUNCTION     0.03     0.03    18.03     0  23:19        0.03
  60757                JUNCTION     0.00     0.00    21.56     0  00:03        0.00
  60758                JUNCTION     0.02     0.02    18.60     0  04:00        0.02
  60759                JUNCTION     0.01     0.01    28.53     0  00:14        0.01
  60760                JUNCTION     0.01     0.01    28.08     0  00:20        0.01
  60761                JUNCTION     0.01     0.01    26.23     0  00:28        0.01
  60762                JUNCTION     0.01     0.01    23.45     0  00:28        0.01
  60763                JUNCTION     0.01     0.01    23.51     0  00:10        0.01
  60764                JUNCTION     0.01     0.01    21.01     0  00:31        0.01
  60765                JUNCTION     0.03     0.03    19.02     0  21:50        0.03
  60766                JUNCTION     0.03     0.03    19.30     0  03:37        0.03
  60767                JUNCTION     0.03     0.03    19.59     0  13:21        0.03
  60768                JUNCTION     0.02     0.02    20.06     0  04:46        0.02
  60769                JUNCTION     0.01     0.01    21.01     0  03:22        0.01
  60770                JUNCTION     0.01     0.01    23.51     0  10:06        0.01
  60771                JUNCTION     0.01     0.01    25.73     0  09:42        0.01
  60772                JUNCTION     0.01     0.01    27.00     0  02:03        0.01
  60773                JUNCTION     0.01     0.01    27.78     0  01:09        0.01
  60774                JUNCTION     0.01     0.01    25.58     0  01:07        0.01
  60775                JUNCTION     0.01     0.01    25.15     0  01:33        0.01
  60776                JUNCTION     0.01     0.01    23.89     0  02:18        0.01
  60777                JUNCTION     0.01     0.01    23.61     0  02:26        0.01
  60778                JUNCTION     0.01     0.01    23.46     0  02:01        0.01
  60779                JUNCTION     0.01     0.01    20.91     0  02:03        0.01
  60780                JUNCTION     0.02     0.02    20.51     0  10:37        0.02
  60781                JUNCTION     0.01     0.01    21.01     0  03:34        0.01
  60782                JUNCTION     0.01     0.01    22.01     0  15:28        0.01
  60783                JUNCTION     0.01     0.01    22.61     0  15:59        0.01
  60784                JUNCTION     0.01     0.01    22.71     0  01:34        0.01
  60785                JUNCTION     0.01     0.01    23.21     0  01:03        0.01
  60786                JUNCTION     0.01     0.01    22.01     0  18:15        0.01
  60787                JUNCTION     0.01     0.01    23.16     0  02:30        0.01
  60788                JUNCTION     0.00     0.00    25.90     0  01:19        0.00
  60789                JUNCTION     0.01     0.01    21.11     0  06:04        0.01
  60790                JUNCTION     0.00     0.01    21.91     0  04:25        0.01
  60791                JUNCTION     0.00     0.00    22.70     0  04:19        0.00
  60792                JUNCTION     0.00     0.00    23.59     0  00:00        0.00
  60793                JUNCTION     0.01     0.01    22.94     0  03:07        0.01
  60794                JUNCTION     0.01     0.01    23.21     0  02:20        0.01
  60795                JUNCTION     0.00     0.00    23.50     0  00:55        0.00
  60796                JUNCTION     0.01     0.01    23.46     0  00:16        0.01
  60797                JUNCTION     0.00     0.00    24.65     0  00:59        0.00
  60798                JUNCTION     0.01     0.01    33.67     0  01:17        0.01
  60799                JUNCTION     0.00     0.00    34.79     0  09:10        0.00
  60800                JUNCTION     0.01     0.01    27.56     0  00:07        0.01
  60801                JUNCTION     0.01     0.01    33.12     0  23:33        0.01
  60802                JUNCTION     0.01     0.01    32.81     0  02:33        0.01
  60803                JUNCTION     0.01     0.01    31.40     0  23:36        0.01
  60804                JUNCTION     0.01     0.01    29.76     0  05:15        0.01
  60805                JUNCTION     0.01     0.01    28.40     0  03:26        0.01
  60806                JUNCTION     0.00     0.00    29.87     0  01:03        0.00
  60807                JUNCTION     0.00     0.00    28.95     0  01:29        0.00
  60808                JUNCTION     0.00     0.00    33.95     0  14:13        0.00
  60809                JUNCTION     0.00     0.00    32.73     0  05:49        0.00
  60810                JUNCTION     0.01     0.01    30.15     0  09:43        0.01
  60811                JUNCTION     0.01     0.01    27.35     0  11:52        0.01
  60812                JUNCTION     0.01     0.01    25.31     0  07:30        0.01
  60813                JUNCTION     0.01     0.01    26.14     0  01:18        0.01
  60814                JUNCTION     0.01     0.01    26.65     0  01:08        0.01
  60815                JUNCTION     0.01     0.01    27.37     0  00:57        0.01
  60816                JUNCTION     0.01     0.01    25.79     0  01:22        0.01
  60817                JUNCTION     0.02     0.02    24.64     0  04:02        0.02
  60818                JUNCTION     0.01     0.01    24.95     0  10:06        0.01
  60819                JUNCTION     0.00     0.00    29.44     0  03:04        0.00
  60820                JUNCTION     0.02     0.02    24.27     0  18:30        0.02
  60821                JUNCTION     0.02     0.02    23.57     0  09:23        0.02
  60822                JUNCTION     0.00     0.00    25.55     0  00:54        0.00
  60823                JUNCTION     0.00     0.00    25.79     0  00:40        0.00
  60824                JUNCTION     0.02     0.02    22.87     0  03:42        0.02
  60825                JUNCTION     0.02     0.02    22.37     0  04:02        0.02
  60826                JUNCTION     0.02     0.02    21.97     0  05:58        0.02
  60827                JUNCTION     0.00     0.00    26.08     0  00:30        0.00
  60828                JUNCTION     0.00     0.00    26.71     0  00:55        0.00
  60829                JUNCTION     0.00     0.00    26.31     0  00:20        0.00
  60830                JUNCTION     0.02     0.02    21.67     0  15:10        0.02
  60832                JUNCTION     0.01     0.02    24.03     0  23:17        0.02
  60833                JUNCTION     0.02     0.02    24.53     0  23:16        0.02
  60834                JUNCTION     0.02     0.02    24.67     0  23:15        0.02
  60835                JUNCTION     0.02     0.02    24.90     0  23:14        0.02
  60836                JUNCTION     0.02     0.02    25.37     0  23:11        0.02
  60837                JUNCTION     0.01     0.02    25.92     0  23:06        0.02
  60838                JUNCTION     0.01     0.02    26.50     0  23:05        0.02
  60839                JUNCTION     0.01     0.01    27.46     0  01:29        0.01
  60840                JUNCTION     0.00     0.00    30.19     0  01:21        0.00
  60841                JUNCTION     0.00     0.00    32.20     0  01:17        0.00
  60842                JUNCTION     0.01     0.01    24.66     0  02:42        0.01
  60843                JUNCTION     0.00     0.01    25.02     0  00:12        0.01
  60844                JUNCTION     0.00     0.00    26.77     0  01:36        0.00
  60845                JUNCTION     0.01     0.01    28.02     0  02:18        0.01
  60846                JUNCTION     0.01     0.01    28.40     0  08:47        0.01
  60847                JUNCTION     0.01     0.01    28.73     0  03:11        0.01
  60848                JUNCTION     0.00     0.00    29.34     0  01:28        0.00
  60849                JUNCTION     0.00     0.00    30.19     0  00:07        0.00
  60850                JUNCTION     0.01     0.01    24.84     0  01:49        0.01
  60851                JUNCTION     0.00     0.00    25.49     0  01:54        0.00
  60852                JUNCTION     0.00     0.00    26.57     0  01:09        0.00
  60853                JUNCTION     0.00     0.00    26.12     0  01:30        0.00
  60854                JUNCTION     0.00     0.00    27.21     0  01:29        0.00
  60855                JUNCTION     0.00     0.00    26.05     0  01:13        0.00
  60856                JUNCTION     0.01     0.07    29.61     0  16:20        0.07
  60857                JUNCTION     0.02     0.08    28.77     0  21:22        0.08
  60858                JUNCTION     0.00     0.00    30.72     0  01:27        0.00
  60859                JUNCTION     0.00     0.00    26.08     0  00:38        0.00
  60860                JUNCTION     0.00     0.00    27.58     0  00:35        0.00
  60861                JUNCTION     0.00     0.01    28.66     0  00:19        0.01
  60862                JUNCTION     0.00     0.00    29.48     0  01:28        0.00
  60863                JUNCTION     0.03     0.10    23.44     0  10:15        0.10
  60864                JUNCTION     0.01     0.01    26.42     0  03:59        0.01
  60865                JUNCTION     0.01     0.01    26.80     0  14:35        0.01
  60866                JUNCTION     0.00     0.00    27.98     0  01:52        0.00
  60867                JUNCTION     0.03     0.03    21.44     0  15:30        0.03
  60868                JUNCTION     0.00     0.00    24.61     0  00:08        0.00
  60869                JUNCTION     0.00     0.00    25.14     0  01:10        0.00
  60870                JUNCTION     0.00     0.00    26.27     0  00:04        0.00
  60871                JUNCTION     0.02     0.02    21.25     0  11:28        0.02
  60872                JUNCTION     0.02     0.02    20.72     0  07:29        0.02
  60873                JUNCTION     0.00     0.00    22.08     0  02:18        0.00
  60874                JUNCTION     0.00     0.00    22.47     0  01:28        0.00
  60875                JUNCTION     0.00     0.00    23.44     0  00:06        0.00
  60876                JUNCTION     0.03     0.03    20.31     0  10:13        0.03
  60877                JUNCTION     0.02     0.02    20.07     0  08:31        0.02
  60878                JUNCTION     0.00     0.00    20.50     0  00:41        0.00
  60879                JUNCTION     0.01     0.01    21.41     0  00:27        0.01
  60880                JUNCTION     0.00     0.00    23.01     0  01:10        0.00
  60881                JUNCTION     0.00     0.01    29.19     0  00:10        0.01
  60882                JUNCTION     0.01     0.01    28.97     0  00:27        0.01
  60883                JUNCTION     0.01     0.01    28.63     0  02:19        0.01
  60884                JUNCTION     0.01     0.01    27.89     0  00:43        0.01
  60885                JUNCTION     0.01     0.01    21.71     0  04:25        0.01
  60886                JUNCTION     0.00     0.00    24.31     0  05:54        0.00
  60887                JUNCTION     0.01     0.01    22.06     0  00:31        0.01
  60888                JUNCTION     0.01     0.01    23.51     0  00:33        0.01
  60889                JUNCTION     0.01     0.01    26.21     0  00:32        0.01
  60890                JUNCTION     0.01     0.01    26.86     0  00:21        0.01
  60891                JUNCTION     0.00     0.00    26.65     0  00:00        0.00
  60892                JUNCTION     0.00     0.00    24.95     0  00:57        0.00
  60893                JUNCTION     0.00     0.00    25.55     0  00:46        0.00
  60894                JUNCTION     0.01     0.01    27.03     0  02:08        0.01
  60895                JUNCTION     0.01     0.01    27.14     0  10:07        0.01
  60896                JUNCTION     0.01     0.01    27.68     0  02:13        0.01
  60897                JUNCTION     0.01     0.01    28.65     0  05:55        0.01
  60898                JUNCTION     0.01     0.01    29.22     0  02:27        0.01
  60899                JUNCTION     0.00     0.00    29.68     0  01:21        0.00
  60900                JUNCTION     0.01     0.01    29.92     0  01:41        0.01
  60901                JUNCTION     0.00     0.00    31.44     0  03:58        0.00
  60902                JUNCTION     0.00     0.00    28.65     0  03:21        0.00
  60903                JUNCTION     0.00     0.00    29.18     0  05:04        0.00
  60904                JUNCTION     0.01     0.02    30.42     0  22:57        0.02
  60906                JUNCTION     0.00     0.00    32.40     0  18:42        0.00
  60907                JUNCTION     0.01     0.01    32.21     0  08:07        0.01
  60908                JUNCTION     0.00     0.00    31.94     0  05:15        0.00
  60909                JUNCTION     0.01     0.01    31.31     0  04:04        0.01
  60910                JUNCTION     0.01     0.01    30.18     0  02:13        0.01
  60911                JUNCTION     0.01     0.01    28.75     0  04:30        0.01
  60912                JUNCTION     0.00     0.00    31.11     0  00:35        0.00
  60913                JUNCTION     0.01     0.01    32.74     0  00:26        0.01
  60914                JUNCTION     0.00     0.00    33.52     0  00:10        0.00
  60915                JUNCTION     0.01     0.01    26.14     0  00:37        0.01
  60916                JUNCTION     0.01     0.01    27.15     0  00:23        0.01
  60917                JUNCTION     0.00     0.00    27.90     0  01:53        0.00
  60918                JUNCTION     0.00     0.00    30.72     0  01:32        0.00
  60919                JUNCTION     0.00     0.00    29.80     0  03:43        0.00
  60920                JUNCTION     0.00     0.00    29.03     0  03:02        0.00
  60921                JUNCTION     0.01     0.01    25.71     0  03:25        0.01
  60922                JUNCTION     0.00     0.00    28.15     0  01:01        0.00
  60923                JUNCTION     0.01     0.01    28.56     0  06:32        0.01
  60924                JUNCTION     0.01     0.01    28.12     0  22:36        0.01
  60925                JUNCTION     0.01     0.01    27.99     0  03:26        0.01
  60926                JUNCTION     0.02     0.02    26.85     0  23:36        0.02
  60927                JUNCTION     0.01     0.01    26.68     0  16:46        0.01
  60928                JUNCTION     0.02     0.02    26.34     0  02:28        0.02
  60929                JUNCTION     0.02     0.02    26.24     0  17:08        0.02
  60930                JUNCTION     0.01     0.01    25.28     0  21:26        0.01
  60931                JUNCTION     0.02     0.02    23.37     0  06:32        0.02
  60932                JUNCTION     0.02     0.07    22.81     0  05:53        0.06
  60933                JUNCTION     0.00     0.00    25.09     0  00:00        0.00
  60934                JUNCTION     0.03     0.07    21.91     0  05:54        0.07
  60935                JUNCTION     0.03     0.08    21.53     0  05:54        0.08
  60936                JUNCTION     0.04     0.10    21.16     0  09:00        0.10
  60937                JUNCTION     0.01     0.03    22.72     0  10:16        0.03
  60938                JUNCTION     0.05     0.12    21.16     0  09:00        0.12
  60939                JUNCTION     0.05     0.12    21.12     0  09:00        0.12
  60940                JUNCTION     0.03     0.08    21.01     0  09:01        0.08
  60941                JUNCTION     0.03     0.09    20.68     0  09:01        0.09
  60942                JUNCTION     0.03     0.08    20.34     0  09:03        0.08
  60943                JUNCTION     0.01     0.01    21.41     0  02:24        0.01
  60944                JUNCTION     0.01     0.01    22.61     0  10:34        0.01
  60945                JUNCTION     0.01     0.01    23.61     0  10:34        0.01
  60946                JUNCTION     0.00     0.00    25.08     0  02:19        0.00
  60947                JUNCTION     0.01     0.01    26.71     0  17:53        0.01
  60948                JUNCTION     0.01     0.01    26.48     0  05:58        0.01
  60949                JUNCTION     0.01     0.01    25.01     0  04:32        0.01
  60950                JUNCTION     0.01     0.02    24.39     0  03:11        0.02
  60951                JUNCTION     0.02     0.02    23.72     0  03:10        0.02
  60952                JUNCTION     0.01     0.01    25.81     0  00:25        0.01
  60953                JUNCTION     0.01     0.01    26.21     0  00:16        0.01
  60954                JUNCTION     0.02     0.02    23.22     0  13:42        0.02
  60955                JUNCTION     0.01     0.01    24.93     0  00:44        0.01
  60956                JUNCTION     0.01     0.01    23.61     0  02:17        0.01
  60957                JUNCTION     0.00     0.00    25.85     0  00:59        0.00
  60958                JUNCTION     0.02     0.02    23.37     0  02:55        0.02
  60959                JUNCTION     0.02     0.02    22.87     0  06:38        0.02
  60960                JUNCTION     0.02     0.02    22.33     0  12:54        0.02
  60961                JUNCTION     0.02     0.02    21.90     0  08:12        0.02
  60962                JUNCTION     0.02     0.02    21.47     0  18:53        0.02
  60963                JUNCTION     0.02     0.02    21.42     0  21:51        0.02
  60964                JUNCTION     0.00     0.00    22.74     0  00:05        0.00
  60965                JUNCTION     0.01     0.01    22.51     0  01:56        0.01
  60966                JUNCTION     0.01     0.01    23.41     0  09:16        0.01
  60967                JUNCTION     0.00     0.00    25.60     0  01:45        0.00
  60968                JUNCTION     0.01     0.01    25.25     0  23:59        0.01
  60969                JUNCTION     0.00     0.00    25.85     0  00:38        0.00
  60970                JUNCTION     0.01     0.01    24.88     0  04:00        0.01
  60971                JUNCTION     0.02     0.07    24.17     0  05:52        0.07
  60972                JUNCTION     0.02     0.06    23.70     0  10:24        0.06
  60973                JUNCTION     0.00     0.00    26.34     0  01:27        0.00
  60974                JUNCTION     0.02     0.06    24.61     0  05:51        0.06
  60975                JUNCTION     0.01     0.04    25.34     0  05:51        0.04
  60976                JUNCTION     0.01     0.06    25.62     0  05:51        0.06
  60977                JUNCTION     0.02     0.10    25.90     0  05:51        0.10
  60978                JUNCTION     0.00     0.00    29.31     0  12:17        0.00
  60979                JUNCTION     0.02     0.08    26.08     0  05:51        0.08
  60980                JUNCTION     0.00     0.00    27.71     0  00:07        0.00
  60981                JUNCTION     0.00     0.00    25.59     0  02:27        0.00
  60982                JUNCTION     0.01     0.01    24.76     0  02:14        0.01
[...]
  65871                   1.00   0.00  0.00  0.00  1.00  0.00  0.00  0.00  1.00  0.00
  65872                   1.00   0.00  0.00  0.00  0.99  0.01  0.00  0.00  0.99  0.00
  65873                   1.00   0.00  0.00  0.00  1.00  0.00  0.00  0.00  0.01  0.00
  65879                   1.00   0.00  0.00  0.00  0.00  1.00  0.00  0.00  1.00  0.00
  65880                   1.00   0.00  0.00  0.00  0.00  1.00  0.00  0.00  1.00  0.00
  65881                   1.00   0.00  0.00  0.00  0.00  1.00  0.00  0.00  0.00  0.00
  65882                   1.00   0.00  0.00  0.00  0.00  1.00  0.00  0.00  1.00  0.00
  65883                   1.00   0.00  0.00  0.00  0.00  1.00  0.00  0.00  0.00  0.00
  65884                   1.00   0.00  0.00  0.00  0.98  0.02  0.00  0.00  1.00  0.00
  65885                   1.00   0.00  0.00  0.00  1.00  0.00  0.00  0.00  0.98  0.00
  65886                   1.00   0.00  0.00  0.00  1.00  0.00  0.00  0.00  0.97  0.00
  65887                   1.00   0.00  0.00  0.00  0.00  1.00  0.00  0.00  0.00  0.00
  65892                   1.00   0.00  1.00  0.00  0.00  0.00  0.00  0.00  0.00  0.00
  65893                   1.00   0.00  0.00  0.00  1.00  0.00  0.00  0.00  1.00  0.00
  65894                   1.00   0.00  0.00  0.00  1.00  0.00  0.00  0.00  0.98  0.00
  65895                   1.00   0.00  0.00  0.00  1.00  0.00  0.00  0.00  0.00  0.00
  65896                   1.00   0.00  0.00  0.00  0.97  0.03  0.00  0.00  0.94  0.00
  65897                   1.00   0.00  0.00  0.00  0.99  0.01  0.00  0.00  0.90  0.00
  65899                   1.00   0.00  0.00  0.00  1.00  0.00  0.00  0.00  1.00  0.00
  65901                   1.00   0.00  0.00  0.00  1.00  0.00  0.00  0.00  0.99  0.00
  65902                   1.00   0.00  0.00  0.00  1.00  0.00  0.00  0.00  0.99  0.00
  65906                   1.00   0.00  0.00  0.00  0.01  0.99  0.00  0.00  1.00  0.00
  65907                   1.00   0.00  0.00  0.00  0.00  1.00  0.00  0.00  0.99  0.00
  65966                   1.00   0.00  0.00  0.00  1.00  0.00  0.00  0.00  0.00  0.00
  65971                   1.20   0.00  0.00  0.00  0.00  1.00  0.00  0.00  0.00  0.00
  65972                   1.00   0.00  0.00  0.00  0.00  0.00  0.00  1.00  0.00  0.00
  65973                   1.00   1.00  0.00  0.00  0.00  0.00  0.00  0.00  0.00  0.00
  66009                   1.00   0.00  0.00  0.00  0.00  1.00  0.00  0.00  0.00  0.00
  66011                   1.00   0.00  0.00  0.00  1.00  0.00  0.00  0.00  0.00  0.00
  66013                   1.00   0.00  0.00  0.00  1.00  0.00  0.00  0.00  1.00  0.00
  66014                   1.00   0.00  0.00  0.00  1.00  0.00  0.00  0.00  0.99  0.00
  66015                   1.00   0.00  0.00  0.00  1.00  0.00  0.00  0.00  0.99  0.00
  66016                   1.00   0.00  0.00  0.00  1.00  0.00  0.00  0.00  1.00  0.00
  66018                   1.00   0.00  0.00  0.00  0.00  1.00  0.00  0.00  1.00  0.00
  66019                   1.00   0.00  0.00  0.00  1.00  0.00  0.00  0.00  1.00  0.00
  66020                   1.00   0.00  0.00  0.00  0.00  1.00  0.00  0.00  1.00  0.00
  66021                   1.00   0.00  0.00  0.00  0.00  1.00  0.00  0.00  0.00  0.00
  66022                   1.00   0.00  0.00  0.00  0.99  0.01  0.00  0.00  1.00  0.00
  66023                   1.00   0.00  0.00  0.00  1.00  0.00  0.00  0.00  1.00  0.00
  66024                   1.00   0.00  0.00  0.00  0.99  0.01  0.00  0.00  0.99  0.00
  66026                   1.00   0.00  0.00  0.00  1.00  0.00  0.00  0.00  0.99  0.00
  66027                   1.00   0.00  0.00  0.00  1.00  0.00  0.00  0.00  0.99  0.00
  66028                   1.00   0.00  0.00  0.00  1.00  0.00  0.00  0.00  0.01  0.00
  66029                   1.00   0.00  0.00  0.00  0.99  0.01  0.00  0.00  0.99  0.00
  66030                   1.00   0.00  0.00  0.00  1.00  0.00  0.00  0.00  1.00  0.00
  66031                   1.00   0.00  0.00  0.00  1.00  0.00  0.00  0.00  1.00  0.00
  66032                   1.00   0.00  0.00  0.00  0.99  0.01  0.00  0.00  0.99  0.00
  66033                   1.00   0.00  0.00  0.00  0.99  0.01  0.00  0.00  0.99  0.00
  66034                   1.00   0.00  0.00  0.00  0.99  0.01  0.00  0.00  1.00  0.00
  66035                   1.00   0.00  0.00  0.00  0.99  0.01  0.00  0.00  0.99  0.00
  66036                   1.00   0.00  0.00  0.00  0.00  0.00  0.00  1.00  0.00  0.00
  66049                   1.00   0.00  0.00  0.00  1.00  0.00  0.00  0.00  1.00  0.00
  66050                   1.00   0.00  0.00  0.00  1.00  0.00  0.00  0.00  1.00  0.00
  66051                   1.00   0.00  0.00  0.00  0.00  1.00  0.00  0.00  0.00  0.00
  66052                   1.00   0.00  0.00  0.00  1.00  0.00  0.00  0.00  1.00  0.00
  66054                   1.00   0.00  0.00  0.00  1.00  0.00  0.00  0.00  1.00  0.00
  66057                   1.00   0.00  0.00  0.00  0.00  1.00  0.00  0.00  0.00  0.00
  66061                   1.00   0.00  0.00  0.00  1.00  0.00  0.00  0.00  1.00  0.00
  66063                   1.00   0.00  0.00  0.00  0.99  0.00  0.00  0.00  0.99  0.00
  66064                   1.00   0.00  0.00  0.00  0.00  1.00  0.00  0.00  0.99  0.00
  66065                   1.00   0.00  0.00  0.00  0.00  1.00  0.00  0.00  0.99  0.00
  66066                   1.00   0.00  0.00  0.00  0.00  1.00  0.00  0.00  1.00  0.00
  66067                   1.00   0.00  0.00  0.00  1.00  0.00  0.00  0.00  1.00  0.00
  66068                   1.00   0.00  0.00  0.00  0.00  1.00  0.00  0.00  1.00  0.00
  66069                   1.00   0.00  0.00  0.00  1.00  0.00  0.00  0.00  1.00  0.00
  66071                   1.00   0.00  0.00  0.00  0.00  1.00  0.00  0.00  0.00  0.00
  66072                   1.00   0.00  0.00  0.00  0.00  1.00  0.00  0.00  0.00  0.00
  66073                   1.00   0.00  0.00  0.00  1.00  0.00  0.00  0.00  1.00  0.00
  66074                   1.00   0.00  0.00  0.00  0.00  1.00  0.00  0.00  1.00  0.00
  66075                   1.00   0.00  0.00  0.00  0.00  1.00  0.00  0.00  1.00  0.00
  66076                   1.00   0.00  0.00  0.00  0.00  1.00  0.00  0.00  1.00  0.00
  66077                   1.00   0.00  1.00  0.00  0.00  0.00  0.00  0.00  0.00  0.00
  66078                   1.00   0.00  0.00  0.00  0.00  1.00  0.00  0.00  0.99  0.00
  66079                   1.00   0.00  0.00  0.00  0.00  1.00  0.00  0.00  1.00  0.00
  66082                   1.00   0.00  1.00  0.00  0.00  0.00  0.00  0.00  0.00  0.00
  66083                   1.00   1.00  0.00  0.00  0.00  0.00  0.00  0.00  0.00  0.00
  68179                   1.00   0.00  0.00  0.00  1.00  0.00  0.00  0.00  1.00  0.00
  68184                   1.00   0.00  0.00  0.00  0.99  0.01  0.00  0.00  1.00  0.00
  68186                   1.00   0.00  0.00  0.00  0.99  0.01  0.00  0.00  1.00  0.00
  68191                   1.00   0.00  0.00  0.00  0.00  1.00  0.00  0.00  1.00  0.00
  68192                   1.00   0.00  0.00  0.00  0.00  1.00  0.00  0.00  1.00  0.00
  68193                   1.00   0.00  0.00  0.00  0.00  1.00  0.00  0.00  1.00  0.00
  68194                   1.00   0.00  0.00  0.00  0.00  1.00  0.00  0.00  0.99  0.00
  68195                   1.00   0.00  0.00  0.00  0.99  0.01  0.00  0.00  0.99  0.00
  68196                   1.00   0.00  0.00  0.00  0.00  1.00  0.00  0.00  1.00  0.00
  68197                   1.00   0.00  0.00  0.00  1.00  0.00  0.00  0.00  0.00  0.00
  68198                   1.00   0.00  0.00  0.00  1.00  0.00  0.00  0.00  1.00  0.00
  68199                   1.00   0.00  0.00  0.00  0.01  0.99  0.00  0.00  0.01  0.00
  68200                   1.00   0.00  0.00  0.00  0.00  1.00  0.00  0.00  0.00  0.00
  68201                   1.00   0.00  0.00  0.00  1.00  0.00  0.00  0.00  1.00  0.00
  68202                   1.00   0.00  0.00  0.00  1.00  0.00  0.00  0.00  1.00  0.00
  68248                   1.00   0.00  0.00  0.00  0.00  1.00  0.00  0.00  1.00  0.00
  68249                   1.00   0.00  0.00  0.00  0.00  1.00  0.00  0.00  1.00  0.00
  68250                   1.00   0.00  0.00  0.00  1.00  0.00  0.00  0.00  0.00  0.00
  68251                   1.00   0.00  0.00  0.00  1.00  0.00  0.00  0.00  1.00  0.00
  68253                   1.00   0.00  0.00  0.00  0.00  1.00  0.00  0.00  1.00  0.00
  68254                   1.00   0.00  0.00  0.00  1.00  0.00  0.00  0.00  0.00  0.00
  68255                   1.00   0.00  0.00  0.00  1.00  0.00  0.00  0.00  1.00  0.00
  68257                   1.00   0.00  0.00  0.00  0.00  1.00  0.00  0.00  0.00  0.00
  68258                   1.00   0.00  0.00  0.00  1.00  0.00  0.00  0.00  0.99  0.00
  68259                   1.00   0.00  0.00  0.00  0.99  0.01  0.00  0.00  0.99  0.00
  68260                   1.00   0.00  0.00  0.00  0.00  1.00  0.00  0.00  0.00  0.00
  68261                   1.00   0.00  0.00  0.00  1.00  0.00  0.00  0.00  1.00  0.00
  68262                   1.00   0.00  0.00  0.00  1.00  0.00  0.00  0.00  0.00  0.00
  68474                   1.00   0.00  0.00  0.00  0.00  1.00  0.00  0.00  0.00  0.00
  68481                   1.00   0.00  0.00  0.00  1.00  0.00  0.00  0.00  1.00  0.00
  68482                   1.00   0.00  0.00  0.00  0.01  0.99  0.00  0.00  0.00  0.00
  68484                   1.00   0.00  0.00  0.00  0.00  1.00  0.00  0.00  0.00  0.00
  68487                   1.00   0.00  0.00  0.00  0.00  1.00  0.00  0.00  0.99  0.00
  68488                   1.00   0.00  0.00  0.00  0.99  0.01  0.00  0.00  1.00  0.00
  68489                   1.00   0.00  0.00  0.00  0.99  0.01  0.00  0.00  0.99  0.00
  72338                   1.00   0.00  0.00  0.00  1.00  0.00  0.00  0.00  1.00  0.00
  72344                   1.00   0.00  0.00  0.00  1.00  0.00  0.00  0.00  1.00  0.00
  72880                   1.00   0.00  0.00  0.00  0.99  0.01  0.00  0.00  0.99  0.00
  72881                   1.00   0.00  0.00  0.00  1.00  0.00  0.00  0.00  0.00  0.00
  73105                   1.00   1.00  0.00  0.00  0.00  0.00  0.00  0.00  0.00  0.00
  73110                   1.00   0.00  0.00  0.00  0.00  1.00  0.00  0.00  0.99  0.00
  73112                   1.00   0.00  0.00  0.00  1.00  0.00  0.00  0.00  0.00  0.00
  73928                   1.00   0.00  0.00  0.00  1.00  0.00  0.00  0.00  0.99  0.00
  73929                   1.00   0.00  1.00  0.00  0.00  0.00  0.00  0.00  0.00  0.00
  73930                   1.00   0.00  0.00  0.00  1.00  0.00  0.00  0.00  1.00  0.00
  73931                   1.00   0.00  0.00  0.00  1.00  0.00  0.00  0.00  1.00  0.00
  73934                   1.00   0.00  0.00  0.00  1.00  0.00  0.00  0.00  0.99  0.00
  73935                   1.00   0.00  0.00  0.00  1.00  0.00  0.00  0.00  0.99  0.00
  73936                   1.00   0.00  0.00  0.00  1.00  0.00  0.00  0.00  0.99  0.00
  74697                   1.00   0.00  0.00  0.00  1.00  0.00  0.00  0.00  1.00  0.00
  82039                   1.00   0.00  0.00  0.00  1.00  0.00  0.00  0.00  0.98  0.00
  82040                   1.00   0.00  0.00  0.00  1.00  0.00  0.00  0.00  0.98  0.00
  82067                   1.00   1.00  0.00  0.00  0.00  0.00  0.00  0.00  0.00  0.00
  82068                   1.00   1.00  0.00  0.00  0.00  0.00  0.00  0.00  0.00  0.00
  82069                   1.00   0.00  1.00  0.00  0.00  0.00  0.00  0.00  0.00  0.00
  82070                   1.00   0.00  0.00  0.00  0.00  1.00  0.00  0.00  1.00  0.00
  82071                   1.00   0.00  0.00  0.00  0.00  1.00  0.00  0.00  1.00  0.00
  82072                   1.00   0.00  0.00  0.00  1.00  0.00  0.00  0.00  1.00  0.00
  82073                   1.00   0.00  0.00  0.00  1.00  0.00  0.00  0.00  0.00  0.00
  82074                   1.00   0.00  0.00  0.00  0.00  1.00  0.00  0.00  0.99  0.00
  82075                   1.00   0.00  0.00  0.00  0.00  1.00  0.00  0.00  0.00  0.00
  82076                   1.00   0.00  0.00  0.00  0.00  1.00  0.00  0.00  1.00  0.00
  82077                   1.00   0.00  0.00  0.00  1.00  0.00  0.00  0.00  1.00  0.00
  82078                   1.00   0.00  0.00  0.00  0.00  1.00  0.00  0.00  0.00  0.00
  82079                   1.00   0.00  0.00  0.00  1.00  0.00  0.00  0.00  1.00  0.00
  82080                   1.00   0.00  0.00  0.00  0.00  1.00  0.00  0.00  0.99  0.00
  82081                   1.00   0.00  1.00  0.00  0.00  0.00  0.00  0.00  0.00  0.00
  82082                   1.00   0.00  0.00  0.00  0.00  1.00  0.00  0.00  1.00  0.00
  82083                   1.00   0.00  1.00  0.00  0.00  0.00  0.00  0.00  0.00  0.00
  82084                   1.00   0.00  0.00  0.00  0.00  1.00  0.00  0.00  0.00  0.00
  82085                   1.00   1.00  0.00  0.00  0.00  0.00  0.00  0.00  0.00  0.00
  82086                   1.22   0.00  0.00  0.00  0.00  0.00  0.00  1.00  0.00  0.00
  82133                   1.00   0.00  0.00  0.00  0.98  0.02  0.00  0.00  0.00  0.00
  85978                   1.00   0.00  0.00  0.00  1.00  0.00  0.00  0.00  1.00  0.00
  91568                   1.00   0.00  0.00  0.00  1.00  0.00  0.00  0.00  1.00  0.00
  91569                   1.00   0.00  0.00  0.00  1.00  0.00  0.00  0.00  1.00  0.00
  91570                   1.00   0.00  0.00  0.00  1.00  0.00  0.00  0.00  0.99  0.00
  91571                   1.00   0.00  0.00  0.00  1.00  0.00  0.00  0.00  1.00  0.00
  91586                   1.00   0.00  0.00  0.00  1.00  0.00  0.00  0.00  0.99  0.00
  91587                   1.00   0.00  0.00  0.00  1.00  0.00  0.00  0.00  0.98  0.00
  91588                   1.00   0.00  0.00  0.00  1.00  0.00  0.00  0.00  0.99  0.00
  91590                   1.00   0.00  0.00  0.00  1.00  0.00  0.00  0.00  0.00  0.00
  91591                   1.00   0.00  0.00  0.00  1.00  0.00  0.00  0.00  0.99  0.00
  91592                   1.00   0.00  0.00  0.00  1.00  0.00  0.00  0.00  1.00  0.00
  91593                   1.00   0.00  0.00  0.00  1.00  0.00  0.00  0.00  1.00  0.00
  98576                   1.00   0.00  0.00  0.00  1.00  0.00  0.00  0.00  1.00  0.00
  98582                   1.00   0.00  1.00  0.00  0.00  0.00  0.00  0.00  0.00  0.00
  98583                   1.00   0.00  0.00  0.00  0.00  0.00  1.00  0.00  0.00  0.00
  98587                   1.00   0.00  0.00  0.00  1.00  0.00  0.00  0.00  0.99  0.00
  98589                   1.00   0.00  0.00  0.00  0.00  0.00  1.00  0.00  0.00  0.00
  98590                   1.00   0.00  0.00  0.00  0.00  0.00  1.00  0.00  0.00  0.00
  98591                   1.00   0.00  0.00  0.00  1.00  0.00  0.00  0.00  1.00  0.00
  CDT-13                  1.00   0.01  0.00  0.00  0.99  0.00  0.00  0.00  0.00  0.00
  CDT-15                  1.00   0.10  0.02  0.00  0.83  0.05  0.00  0.00  0.01  0.00
  DUMMY_CASINO_STP_INLET    1.08   0.24  0.00  0.00  0.76  0.00  0.00  0.00  0.00  0.00
  OF_SPS601_PIPE          1.00   1.00  0.00  0.00  0.00  0.00  0.00  0.00  0.00  0.00
  OF_SPS604_PIPE          1.00   1.00  0.00  0.00  0.00  0.00  0.00  0.00  0.00  0.00
  OF_SPS610_PIPE          1.00   1.00  0.00  0.00  0.00  0.00  0.00  0.00  0.00  0.00
  
  
  *************************
  Conduit Surcharge Summary
  *************************
  
  ----------------------------------------------------------------------------
                                                           Hours        Hours 
                         --------- Hours Full --------   Above Full   Capacity
  Conduit                Both Ends  Upstream  Dnstream   Normal Flow   Limited
  ----------------------------------------------------------------------------
  62531                       0.01      0.01     19.19      0.01         0.01
  62633                       0.01      0.01      8.41      0.01         0.01
  62636                       0.01      0.01      5.43      0.01         0.01
  62637                       5.43      5.43     10.39      0.01         0.01
  62651                       0.01      0.01     18.73      0.01         0.01
  63420                       0.01      0.01     18.48      0.01         0.01
  63422                       0.01      0.01     21.03      0.01         0.01
  63426                       0.01      0.01     17.53      0.01         0.01
  63572                       0.01      0.01     22.16      0.01         0.01
  63998                       0.01      0.01      4.17      0.01         0.01
  64023                       0.01      0.01      1.52      0.01         0.01
  64036                       0.01      0.01     21.80      0.01         0.01
  64039                       1.12      1.31      1.31      1.03         0.30
  64144                       2.56      2.80     14.91      0.01         0.93
  64640                       3.72      6.43     10.30      0.21         0.01
  64654                      21.99     21.99     22.20      0.01         0.01
  64655                      16.83     16.83     21.99      0.01         0.01
  64656                       0.01      0.01     16.83      0.01         0.01
  64664                      13.84     13.84     16.83      0.01         0.01
  64665                       5.80      5.80     13.84      0.01         0.01
  64666                       0.01      0.01     13.84      0.01         0.01
  64827                       0.01      0.01      2.17      0.80         0.01
  64846                       0.01      0.01      8.60      0.01         0.01
  82133                       0.01      0.01     17.66      0.71         0.01
  CDT-13                      0.01      0.01      0.01     11.20         0.01
  CDT-15                      0.01      0.01      1.31      0.78         0.01
  
  
  ***************
  Pumping Summary
  ***************
  
  ---------------------------------------------------------------------------------------------------------
                                                  Min       Avg       Max     Total     Power    % Time Off
                        Percent   Number of      Flow      Flow      Flow    Volume     Usage    Pump Curve
  Pump                 Utilized   Start-Ups       LPS       LPS       LPS  10^6 ltr     Kw-hr    Low   High
  ---------------------------------------------------------------------------------------------------------
  SPS601                   7.11          46      0.00    320.00    320.00     1.966     91.85    0.0    1.5
  SPS602                   3.68          46      0.00     74.35     74.35     0.236     56.96    0.0   25.2
  SPS603                   8.42          31      0.00     10.63     10.63     0.077      0.41    0.0    0.0
  SPS604                  11.40          14      0.00      9.41      9.41     0.093      2.39    0.0    0.0
  SPS605                   6.22          17      0.00      9.28      9.28     0.050      1.06    0.0    0.0
  SPS606                   6.30          31      0.00      2.80      2.80     0.015      0.53    0.0    0.0
  SPS607                   1.75          12      0.00     17.27     17.27     0.026      0.86    0.0    0.5
  SPS608                  10.77          34      0.00     11.28     11.28     0.105      2.07    0.0    0.0
  SPS609                   3.01          14      0.00      7.23      7.23     0.019      0.11    0.0    0.0
  SPS610                   5.24         229      0.00    142.00    142.00     0.642     22.96    0.0    0.0
  SPS611                   6.25          11      0.00     15.46     15.46     0.083      0.05    0.0    0.0
  SPS612                   5.23           7      0.00      7.10      7.10     0.032      1.26    0.0    0.0
  SPS613                   4.09          16      0.00      6.20      6.20     0.022      1.21    0.0    0.2
  SPS614                   0.91           4      0.00      3.17      3.17     0.002      0.10    0.0    0.0
  SPS615                   0.00           0      0.00      0.00      0.00     0.000      0.00    0.0    0.0
  SPS616                   3.31           7      0.00      3.82      3.82     0.011      0.43    0.0    0.0
  

  Analysis begun on:  Fri Nov 29 10:40:37 2019
  Analysis ended on:  Fri Nov 29 10:43:26 2019
  Total elapsed time: 00:02:49