
  EPA STORM WATER MANAGEMENT MODEL - VERSION 5.1 (Build 5.1.013)
  --------------------------------------------------------------

  WARNING 08: elevation drop exceeds length for Conduit FM-15
  WARNING 08: elevation drop exceeds length for Conduit FM-18
  WARNING 08: elevation drop exceeds length for Conduit FM-20
  WARNING 08: elevation drop exceeds length for Conduit FM-22
  WARNING 08: elevation drop exceeds length for Conduit FM-26
  WARNING 08: elevation drop exceeds length for Conduit FM-29
  WARNING 08: elevation drop exceeds length for Conduit FM-38
  WARNING 08: elevation drop exceeds length for Conduit FM-41
  WARNING 08: elevation drop exceeds length for Conduit FM-56
  WARNING 08: elevation drop exceeds length for Conduit FM-59
  
  *********************************************************
  NOTE: The summary statistics displayed in this report are
  based on results found at every computational time step,  
  not just on results from each reporting time step.
  *********************************************************
  
  ****************
  Analysis Options
  ****************
  Flow Units ............... CFS
  Process Models:
    Rainfall/Runoff ........ NO
    RDII ................... NO
    Snowmelt ............... NO
    Groundwater ............ NO
    Flow Routing ........... YES
    Ponding Allowed ........ NO
    Water Quality .......... NO
  Flow Routing Method ...... DYNWAVE
  Surcharge Method ......... EXTRAN
  Starting Date ............ 01/01/2000 00:00:00
  Ending Date .............. 01/03/2000 00:00:00
  Antecedent Dry Days ...... 0.0
  Report Time Step ......... 00:12:00
  Routing Time Step ........ 30.00 sec
  Variable Time Step ....... YES
  Maximum Trials ........... 8
  Number of Threads ........ 1
  Head Tolerance ........... 0.005000 ft
  
  
  **************************        Volume        Volume
  Flow Routing Continuity        acre-feet      10^6 gal
  **************************     ---------     ---------
  Dry Weather Inflow .......         0.000         0.000
  Wet Weather Inflow .......         0.000         0.000
  Groundwater Inflow .......         0.000         0.000
  RDII Inflow ..............         0.000         0.000
  External Inflow ..........         0.000         0.000
  External Outflow .........         0.000         0.000
  Flooding Loss ............         0.000         0.000
  Evaporation Loss .........         0.000         0.000
  Exfiltration Loss ........         0.000         0.000
  Initial Stored Volume ....         0.064         0.021
  Final Stored Volume ......         0.064         0.021
  Continuity Error (%) .....         0.000
  
  
  ***************************
  Time-Step Critical Elements
  ***************************
  None
  
  
  ********************************
  Highest Flow Instability Indexes
  ********************************
  All links are stable.
  
  
  ******************
  Node Depth Summary
  ******************
  
  ---------------------------------------------------------------------------------
                                 Average  Maximum  Maximum  Time of Max    Reported
                                   Depth    Depth      HGL   Occurrence   Max Depth
  Node                 Type         Feet     Feet     Feet  days hr:min        Feet
  ---------------------------------------------------------------------------------
  BLM001               JUNCTION  -nan(ind)     0.00  1148.68     0  00:00        0.00
  BLM002               JUNCTION  -nan(ind)     0.00  1150.84     0  00:00        0.00
  BLM003               JUNCTION  -nan(ind)     0.00  1151.68     0  00:00        0.00
  BLM004               JUNCTION  -nan(ind)     0.00  1149.87     0  00:00        0.00
  BLM005               JUNCTION  -nan(ind)     0.00  1153.14     0  00:00        0.00
  BLM006               JUNCTION  -nan(ind)     0.00  1153.27     0  00:00        0.00
  BLM007               JUNCTION  -nan(ind)     0.00  1153.86     0  00:00        0.00
  BLM008               JUNCTION  -nan(ind)     0.00  1159.03     0  00:00        0.00
  BLM009               JUNCTION  -nan(ind)     0.00  1160.76     0  00:00        0.00
  BLM010               JUNCTION  -nan(ind)     0.00  1161.36     0  00:00        0.00
  BLM011               JUNCTION  -nan(ind)     0.00  1161.76     0  00:00        0.00
  BLM012               JUNCTION  -nan(ind)     0.00  1163.08     0  00:00        0.00
  BLM013               JUNCTION  -nan(ind)     0.00  1180.08     0  00:00        0.00
  BLM014               JUNCTION  -nan(ind)     0.00  1170.35     0  00:00        0.00
  BLM015               JUNCTION  -nan(ind)     0.00  1178.70     0  00:00        0.00
  BLM016               JUNCTION  -nan(ind)     0.00  1175.22     0  00:00        0.00
  BLM017               JUNCTION  -nan(ind)     0.00  1186.58     0  00:00        0.00
  BLM018               JUNCTION  -nan(ind)     0.00  1186.47     0  00:00        0.00
  BLM019               JUNCTION  -nan(ind)     0.00  1187.91     0  00:00        0.00
  BLM020               JUNCTION  -nan(ind)     0.00  1188.03     0  00:00        0.00
  BLM021               JUNCTION  -nan(ind)     0.00  1202.18     0  00:00        0.00
  BLM022               JUNCTION  -nan(ind)     0.00  1210.92     0  00:00        0.00
  BLM023               JUNCTION  -nan(ind)     0.00  1208.94     0  00:00        0.00
  BLM024               JUNCTION  -nan(ind)     0.00  1216.98     0  00:00        0.00
  BLM025               JUNCTION  -nan(ind)     0.00  1225.26     0  00:00        0.00
  BLM026               JUNCTION  -nan(ind)     0.00  1229.38     0  00:00        0.00
  BLM027               JUNCTION  -nan(ind)     0.00  1258.37     0  00:00        0.00
  BLM028               JUNCTION  -nan(ind)     0.00  1278.82     0  00:00        0.00
  BLM029               JUNCTION  -nan(ind)     0.00  1285.36     0  00:00        0.00
  BLM030               JUNCTION  -nan(ind)     0.00  1286.45     0  00:00        0.00
  BLM031               JUNCTION  -nan(ind)     0.00  1288.80     0  00:00        0.00
  BLM032               JUNCTION  -nan(ind)     0.00  1295.51     0  00:00        0.00
  BLM033               JUNCTION  -nan(ind)     0.00  1290.07     0  00:00        0.00
  BLM034               JUNCTION  -nan(ind)     0.00  1290.29     0  00:00        0.00
  BLM035               JUNCTION  -nan(ind)     0.00  1291.51     0  00:00        0.00
  BLM036               JUNCTION  -nan(ind)     0.00  1292.40     0  00:00        0.00
  BLM037               JUNCTION  -nan(ind)     0.00  1299.04     0  00:00        0.00
  BLM038               JUNCTION  -nan(ind)     0.00  1291.95     0  00:00        0.00
  BLM039               JUNCTION  -nan(ind)     0.00  1291.32     0  00:00        0.00
  BLM040               JUNCTION  -nan(ind)     0.00  1298.17     0  00:00        0.00
  BLM041               JUNCTION  -nan(ind)     0.00  1293.36     0  00:00        0.00
  BLM042               JUNCTION  -nan(ind)     0.00  1292.06     0  00:00        0.00
  BLM043               JUNCTION  -nan(ind)     0.00  1300.99     0  00:00        0.00
  BLM044               JUNCTION  -nan(ind)     0.00  1293.62     0  00:00        0.00
  BLM045               JUNCTION  -nan(ind)     0.00  1297.48     0  00:00        0.00
  BLM046               JUNCTION  -nan(ind)     0.00  1299.48     0  00:00        0.00
  BLM047               JUNCTION  -nan(ind)     0.00  1294.43     0  00:00        0.00
  BLM048               JUNCTION  -nan(ind)     0.00  1298.55     0  00:00        0.00
  BLM049               JUNCTION  -nan(ind)     0.00  1296.71     0  00:00        0.00
  BLM050               JUNCTION  -nan(ind)     0.00  1303.57     0  00:00        0.00
  BLM051               JUNCTION  -nan(ind)     0.00  1301.70     0  00:00        0.00
  BLM052               JUNCTION  -nan(ind)     0.00  1299.74     0  00:00        0.00
  BLM053               JUNCTION  -nan(ind)     0.00  1298.97     0  00:00        0.00
  BLM054               JUNCTION  -nan(ind)     0.00  1305.64     0  00:00        0.00
  BLM055               JUNCTION  -nan(ind)     0.00  1301.61     0  00:00        0.00
  BLM056               JUNCTION  -nan(ind)     0.00  1302.71     0  00:00        0.00
  ETO002               JUNCTION  -nan(ind)     0.00  1014.16     0  00:00        0.00
  ETO003               JUNCTION  -nan(ind)     0.00  1017.03     0  00:00        0.00
  ETO004               JUNCTION  -nan(ind)     0.00  1013.68     0  00:00        0.00
  ETO005               JUNCTION  -nan(ind)     0.00  1023.36     0  00:00        0.00
  ETO006               JUNCTION  -nan(ind)     0.00  1013.99     0  00:00        0.00
  ETO007               JUNCTION  -nan(ind)     0.00  1026.01     0  00:00        0.00
  ETO008               JUNCTION  -nan(ind)     0.00  1014.20     0  00:00        0.00
  ETO009               JUNCTION  -nan(ind)     0.00  1026.97     0  00:00        0.00
  ETO010               JUNCTION  -nan(ind)     0.00  1014.44     0  00:00        0.00
  ETO011               JUNCTION  -nan(ind)     0.00  1014.74     0  00:00        0.00
  ETO012               JUNCTION  -nan(ind)     0.00  1031.93     0  00:00        0.00
  ETO013               JUNCTION  -nan(ind)     0.00  1015.12     0  00:00        0.00
  ETO014               JUNCTION  -nan(ind)     0.00  1032.63     0  00:00        0.00
  ETO015               JUNCTION  -nan(ind)     0.00  1015.40     0  00:00        0.00
  ETO016               JUNCTION  -nan(ind)     0.00  1033.69     0  00:00        0.00
  ETO017               JUNCTION  -nan(ind)     0.00  1015.52     0  00:00        0.00
  ETO018               JUNCTION  -nan(ind)     0.00  1034.86     0  00:00        0.00
  ETO019               JUNCTION  -nan(ind)     0.00  1015.75     0  00:00        0.00
  ETO020               JUNCTION  -nan(ind)     0.00  1056.08     0  00:00        0.00
  ETO021               JUNCTION  -nan(ind)     0.00  1015.94     0  00:00        0.00
  ETO022               JUNCTION  -nan(ind)     0.00  1064.65     0  00:00        0.00
  ETO023               JUNCTION  -nan(ind)     0.00  1085.18     0  00:00        0.00
  ETO024               JUNCTION  -nan(ind)     0.00  1016.28     0  00:00        0.00
  ETO025               JUNCTION  -nan(ind)     0.00  1094.13     0  00:00        0.00
  ETO026               JUNCTION  -nan(ind)     0.00  1103.05     0  00:00        0.00
  ETO027               JUNCTION  -nan(ind)     0.00  1016.51     0  00:00        0.00
  ETO028               JUNCTION  -nan(ind)     0.00  1129.17     0  00:00        0.00
  ETO029               JUNCTION  -nan(ind)     0.00  1016.83     0  00:00        0.00
  ETO030               JUNCTION  -nan(ind)     0.00  1158.66     0  00:00        0.00
  ETO031               JUNCTION  -nan(ind)     0.00  1183.80     0  00:00        0.00
  ETO032               JUNCTION  -nan(ind)     0.00  1017.12     0  00:00        0.00
  ETO033               JUNCTION  -nan(ind)     0.00  1162.95     0  00:00        0.00
  ETO034               JUNCTION  -nan(ind)     0.00  1017.21     0  00:00        0.00
  ETO035               JUNCTION  -nan(ind)     0.00  1017.51     0  00:00        0.00
  ETO036               JUNCTION  -nan(ind)     0.00  1200.45     0  00:00        0.00
  ETO037               JUNCTION  -nan(ind)     0.00  1204.88     0  00:00        0.00
  ETO038               JUNCTION  -nan(ind)     0.00  1166.12     0  00:00        0.00
  ETO039               JUNCTION  -nan(ind)     0.00  1017.64     0  00:00        0.00
  ETO040               JUNCTION  -nan(ind)     0.00  1174.93     0  00:00        0.00
  ETO042               JUNCTION  -nan(ind)     0.00  1176.17     0  00:00        0.00
  ETO043               JUNCTION  -nan(ind)     0.00  1018.31     0  00:00        0.00
  ETO044               JUNCTION  -nan(ind)     0.00  1018.72     0  00:00        0.00
  ETO045               JUNCTION  -nan(ind)     0.00  1019.00     0  00:00        0.00
  ETO046               JUNCTION  -nan(ind)     0.00  1019.45     0  00:00        0.00
  ETO047               JUNCTION  -nan(ind)     0.00  1115.15     0  00:00        0.00
  ETO048               JUNCTION  -nan(ind)     0.00  1119.51     0  00:00        0.00
  ETO049               JUNCTION  -nan(ind)     0.00  1020.13     0  00:00        0.00
  ETO050               JUNCTION  -nan(ind)     0.00  1122.12     0  00:00        0.00
  ETO051               JUNCTION  -nan(ind)     0.00  1124.13     0  00:00        0.00
  ETO052               JUNCTION  -nan(ind)     0.00  1020.25     0  00:00        0.00
  ETO053               JUNCTION  -nan(ind)     0.00  1125.16     0  00:00        0.00
  ETO054               JUNCTION  -nan(ind)     0.00  1020.59     0  00:00        0.00
  ETO055               JUNCTION  -nan(ind)     0.00  1021.05     0  00:00        0.00
  ETO056               JUNCTION  -nan(ind)     0.00  1021.50     0  00:00        0.00
  ETO057               JUNCTION  -nan(ind)     0.00  1021.82     0  00:00        0.00
  ETO058               JUNCTION  -nan(ind)     0.00  1022.15     0  00:00        0.00
  ETO059               JUNCTION  -nan(ind)     0.00  1022.59     0  00:00        0.00
  ETO060               JUNCTION  -nan(ind)     0.00  1023.14     0  00:00        0.00
  ETO061               JUNCTION  -nan(ind)     0.00  1023.61     0  00:00        0.00
  ETO062               JUNCTION  -nan(ind)     0.00  1023.91     0  00:00        0.00
  ETO063               JUNCTION  -nan(ind)     0.00  1024.53     0  00:00        0.00
  ETO064               JUNCTION  -nan(ind)     0.00  1025.20     0  00:00        0.00
  ETO065               JUNCTION  -nan(ind)     0.00  1025.67     0  00:00        0.00
  ETO066               JUNCTION  -nan(ind)     0.00  1026.78     0  00:00        0.00
  ETO067               JUNCTION  -nan(ind)     0.00  1026.79     0  00:00        0.00
  ETO068               JUNCTION  -nan(ind)     0.00  1027.40     0  00:00        0.00
  ETO069               JUNCTION  -nan(ind)     0.00  1027.69     0  00:00        0.00
  ETO070               JUNCTION  -nan(ind)     0.00  1027.99     0  00:00        0.00
  ETO071               JUNCTION  -nan(ind)     0.00  1028.16     0  00:00        0.00
  ETO072               JUNCTION  -nan(ind)     0.00  1028.60     0  00:00        0.00
  GRZ001               JUNCTION  -nan(ind)     0.00  1196.12     0  00:00        0.00
  GRZ002               JUNCTION  -nan(ind)     0.00  1203.42     0  00:00        0.00
  GRZ003               JUNCTION  -nan(ind)     0.00  1204.74     0  00:00        0.00
  GRZ004               JUNCTION  -nan(ind)     0.00  1234.32     0  00:00        0.00
  GRZ005               JUNCTION  -nan(ind)     0.00  1206.41     0  00:00        0.00
  GRZ006               JUNCTION  -nan(ind)     0.00  1207.46     0  00:00        0.00
  GRZ007               JUNCTION  -nan(ind)     0.00  1220.02     0  00:00        0.00
  GRZ008               JUNCTION  -nan(ind)     0.00  1210.58     0  00:00        0.00
  GRZ009               JUNCTION  -nan(ind)     0.00  1225.62     0  00:00        0.00
  GRZ010               JUNCTION  -nan(ind)     0.00  1220.23     0  00:00        0.00
  GRZ011               JUNCTION  -nan(ind)     0.00  1230.62     0  00:00        0.00
  GRZ012               JUNCTION  -nan(ind)     0.00  1232.65     0  00:00        0.00
  GRZ013               JUNCTION  -nan(ind)     0.00  1235.38     0  00:00        0.00
  NIX002               JUNCTION  -nan(ind)     0.00  1089.09     0  00:00        0.00
  NIX003               JUNCTION  -nan(ind)     0.00  1090.85     0  00:00        0.00
  NIX004               JUNCTION  -nan(ind)     0.00  1108.46     0  00:00        0.00
  NIX005               JUNCTION  -nan(ind)     0.00  1091.46     0  00:00        0.00
  NIX006               JUNCTION  -nan(ind)     0.00  1114.80     0  00:00        0.00
  NIX007               JUNCTION  -nan(ind)     0.00  1091.99     0  00:00        0.00
  NIX008               JUNCTION  -nan(ind)     0.00  1127.91     0  00:00        0.00
  NIX009               JUNCTION  -nan(ind)     0.00  1093.72     0  00:00        0.00
  NIX010               JUNCTION  -nan(ind)     0.00  1134.81     0  00:00        0.00
  NIX011               JUNCTION  -nan(ind)     0.00  1094.70     0  00:00        0.00
  NIX012               JUNCTION  -nan(ind)     0.00  1129.21     0  00:00        0.00
  NIX013               JUNCTION  -nan(ind)     0.00  1138.87     0  00:00        0.00
  NIX014               JUNCTION  -nan(ind)     0.00  1095.41     0  00:00        0.00
  NIX015               JUNCTION  -nan(ind)     0.00  1138.00     0  00:00        0.00
  NIX016               JUNCTION  -nan(ind)     0.00  1142.72     0  00:00        0.00
  NIX017               JUNCTION  -nan(ind)     0.00  1095.67     0  00:00        0.00
  NIX018               JUNCTION  -nan(ind)     0.00  1096.28     0  00:00        0.00
  NIX019               JUNCTION  -nan(ind)     0.00  1143.79     0  00:00        0.00
  NIX020               JUNCTION  -nan(ind)     0.00  1108.53     0  00:00        0.00
  NIX021               JUNCTION  -nan(ind)     0.00  1151.27     0  00:00        0.00
  NIX022               JUNCTION  -nan(ind)     0.00  1121.32     0  00:00        0.00
  NIX023               JUNCTION  -nan(ind)     0.00  1122.04     0  00:00        0.00
  NIX024               JUNCTION  -nan(ind)     0.00  1154.03     0  00:00        0.00
  NIX025               JUNCTION  -nan(ind)     0.00  1126.46     0  00:00        0.00
  NIX026               JUNCTION  -nan(ind)     0.00  1126.81     0  00:00        0.00
  NIX027               JUNCTION  -nan(ind)     0.00  1129.43     0  00:00        0.00
  NIX028               JUNCTION  -nan(ind)     0.00  1098.68     0  00:00        0.00
  NIX029               JUNCTION  -nan(ind)     0.00  1134.86     0  00:00        0.00
  NIX030               JUNCTION  -nan(ind)     0.00  1099.18     0  00:00        0.00
  NIX031               JUNCTION  -nan(ind)     0.00  1135.52     0  00:00        0.00
  NIX032               JUNCTION  -nan(ind)     0.00  1144.25     0  00:00        0.00
  NIX033               JUNCTION  -nan(ind)     0.00  1153.35     0  00:00        0.00
  NIX034               JUNCTION  -nan(ind)     0.00  1099.90     0  00:00        0.00
  NIX035               JUNCTION  -nan(ind)     0.00  1136.83     0  00:00        0.00
  NIX036               JUNCTION  -nan(ind)     0.00  1149.01     0  00:00        0.00
  NIX037               JUNCTION  -nan(ind)     0.00  1137.67     0  00:00        0.00
  NIX038               JUNCTION  -nan(ind)     0.00  1100.67     0  00:00        0.00
  NIX039               JUNCTION  -nan(ind)     0.00  1138.33     0  00:00        0.00
  NIX040               JUNCTION  -nan(ind)     0.00  1169.89     0  00:00        0.00
  NIX041               JUNCTION  -nan(ind)     0.00  1159.07     0  00:00        0.00
  NIX042               JUNCTION  -nan(ind)     0.00  1170.92     0  00:00        0.00
  NIX043               JUNCTION  -nan(ind)     0.00  1161.11     0  00:00        0.00
  NIX044               JUNCTION  -nan(ind)     0.00  1101.74     0  00:00        0.00
  NIX045               JUNCTION  -nan(ind)     0.00  1102.24     0  00:00        0.00
  NIX046               JUNCTION  -nan(ind)     0.00  1150.67     0  00:00        0.00
  NIX047               JUNCTION  -nan(ind)     0.00  1152.08     0  00:00        0.00
  NIX048               JUNCTION  -nan(ind)     0.00  1162.98     0  00:00        0.00
  NIX049               JUNCTION  -nan(ind)     0.00  1163.36     0  00:00        0.00
  NIX050               JUNCTION  -nan(ind)     0.00  1103.45     0  00:00        0.00
  NIX051               JUNCTION  -nan(ind)     0.00  1105.51     0  00:00        0.00
  NIX052               JUNCTION  -nan(ind)     0.00  1107.47     0  00:00        0.00
  NIX053               JUNCTION  -nan(ind)     0.00  1109.71     0  00:00        0.00
  NIX054               JUNCTION  -nan(ind)     0.00  1112.54     0  00:00        0.00
  NIX055               JUNCTION  -nan(ind)     0.00  1115.21     0  00:00        0.00
  NIX056               JUNCTION  -nan(ind)     0.00  1097.26     0  00:00        0.00
  TAF001               JUNCTION  -nan(ind)     0.00  1029.64     0  00:00        0.00
  TAF002               JUNCTION  -nan(ind)     0.00  1031.60     0  00:00        0.00
  TAF003               JUNCTION  -nan(ind)     0.00  1034.50     0  00:00        0.00
  TAF004               JUNCTION  -nan(ind)     0.00  1036.14     0  00:00        0.00
  TAF005               JUNCTION  -nan(ind)     0.00  1038.69     0  00:00        0.00
  TAF006               JUNCTION  -nan(ind)     0.00  1039.42     0  00:00        0.00
  TAF007               JUNCTION  -nan(ind)     0.00  1041.23     0  00:00        0.00
  TAF008               JUNCTION  -nan(ind)     0.00  1043.64     0  00:00        0.00
  TAF009               JUNCTION  -nan(ind)     0.00  1045.71     0  00:00        0.00
  TAF010               JUNCTION  -nan(ind)     0.00  1046.44     0  00:00        0.00
  TAF011               JUNCTION  -nan(ind)     0.00  1047.78     0  00:00        0.00
  TAF012               JUNCTION  -nan(ind)     0.00  1049.23     0  00:00        0.00
  TAF013               JUNCTION  -nan(ind)     0.00  1050.03     0  00:00        0.00
  TAF014               JUNCTION  -nan(ind)     0.00  1050.32     0  00:00        0.00
  TAF015               JUNCTION  -nan(ind)     0.00  1051.13     0  00:00        0.00
  TAF016               JUNCTION  -nan(ind)     0.00  1053.76     0  00:00        0.00
  TAF017               JUNCTION  -nan(ind)     0.00  1063.43     0  00:00        0.00
  TAF018               JUNCTION  -nan(ind)     0.00  1064.85     0  00:00        0.00
  TAF019               JUNCTION  -nan(ind)     0.00  1065.00     0  00:00        0.00
  TAF020               JUNCTION  -nan(ind)     0.00  1065.43     0  00:00        0.00
  TAF021               JUNCTION  -nan(ind)     0.00  1066.33     0  00:00        0.00
  TAF022               JUNCTION  -nan(ind)     0.00  1067.47     0  00:00        0.00
  TAF023               JUNCTION  -nan(ind)     0.00  1068.21     0  00:00        0.00
  TAF024               JUNCTION  -nan(ind)     0.00  1068.88     0  00:00        0.00
  TAF025               JUNCTION  -nan(ind)     0.00  1069.34     0  00:00        0.00
  TAF026               JUNCTION  -nan(ind)     0.00  1070.24     0  00:00        0.00
  TAF027               JUNCTION  -nan(ind)     0.00  1072.01     0  00:00        0.00
  TAF028               JUNCTION  -nan(ind)     0.00  1072.77     0  00:00        0.00
  TAF029               JUNCTION  -nan(ind)     0.00  1072.93     0  00:00        0.00
  TAF030               JUNCTION  -nan(ind)     0.00  1073.22     0  00:00        0.00
  TAF031               JUNCTION  -nan(ind)     0.00  1073.44     0  00:00        0.00
  TAF032               JUNCTION  -nan(ind)     0.00  1076.07     0  00:00        0.00
  TAF033               JUNCTION  -nan(ind)     0.00  1077.17     0  00:00        0.00
  TAF034               JUNCTION  -nan(ind)     0.00  1077.65     0  00:00        0.00
  TAF035               JUNCTION  -nan(ind)     0.00  1078.95     0  00:00        0.00
  TAF036               JUNCTION  -nan(ind)     0.00  1079.81     0  00:00        0.00
  TAF037               JUNCTION  -nan(ind)     0.00  1082.69     0  00:00        0.00
  TAF038               JUNCTION  -nan(ind)     0.00  1083.03     0  00:00        0.00
  TAF039               JUNCTION  -nan(ind)     0.00  1095.40     0  00:00        0.00
  TAF040               JUNCTION  -nan(ind)     0.00  1083.76     0  00:00        0.00
  TAF041               JUNCTION  -nan(ind)     0.00  1110.28     0  00:00        0.00
  TAF042               JUNCTION  -nan(ind)     0.00  1084.91     0  00:00        0.00
  TAF043               JUNCTION  -nan(ind)     0.00  1112.47     0  00:00        0.00
  TAF044               JUNCTION  -nan(ind)     0.00  1112.34     0  00:00        0.00
  TAF045               JUNCTION  -nan(ind)     0.00  1130.53     0  00:00        0.00
  TAF046               JUNCTION  -nan(ind)     0.00  1115.83     0  00:00        0.00
  TAF047               JUNCTION  -nan(ind)     0.00  1135.43     0  00:00        0.00
  TAF048               JUNCTION  -nan(ind)     0.00  1121.63     0  00:00        0.00
  TAF049               JUNCTION  -nan(ind)     0.00  1130.67     0  00:00        0.00
  TAF050               JUNCTION  -nan(ind)     0.00  1144.48     0  00:00        0.00
  TAF051               JUNCTION  -nan(ind)     0.00  1086.08     0  00:00        0.00
  TAF052               JUNCTION  -nan(ind)     0.00  1162.95     0  00:00        0.00
  TAF054               JUNCTION  -nan(ind)     0.00  1168.91     0  00:00        0.00
  TAF055               JUNCTION  -nan(ind)     0.00  1086.79     0  00:00        0.00
  TAF056               JUNCTION  -nan(ind)     0.00  1151.49     0  00:00        0.00
  TAF057               JUNCTION  -nan(ind)     0.00  1172.26     0  00:00        0.00
  TAF058               JUNCTION  -nan(ind)     0.00  1160.16     0  00:00        0.00
  TAF059               JUNCTION  -nan(ind)     0.00  1171.24     0  00:00        0.00
  TAF060               JUNCTION  -nan(ind)     0.00  1088.74     0  00:00        0.00
  TAF061               JUNCTION  -nan(ind)     0.00  1173.22     0  00:00        0.00
  TAF062               JUNCTION  -nan(ind)     0.00  1163.22     0  00:00        0.00
  TAF063               JUNCTION  -nan(ind)     0.00  1199.61     0  00:00        0.00
  TAF064               JUNCTION  -nan(ind)     0.00  1178.18     0  00:00        0.00
  TAF065               JUNCTION  -nan(ind)     0.00  1179.16     0  00:00        0.00
  TAF066               JUNCTION  -nan(ind)     0.00  1206.95     0  00:00        0.00
  TAF067               JUNCTION  -nan(ind)     0.00  1177.07     0  00:00        0.00
  TAF068               JUNCTION  -nan(ind)     0.00  1165.21     0  00:00        0.00
  TAF069               JUNCTION  -nan(ind)     0.00  1191.77     0  00:00        0.00
  TAF070               JUNCTION  -nan(ind)     0.00  1176.54     0  00:00        0.00
  TAF071               JUNCTION  -nan(ind)     0.00  1092.44     0  00:00        0.00
  TAF072               JUNCTION  -nan(ind)     0.00  1180.61     0  00:00        0.00
  TAF073               JUNCTION  -nan(ind)     0.00  1183.76     0  00:00        0.00
  TAF074               JUNCTION  -nan(ind)     0.00  1176.59     0  00:00        0.00
  TAF075               JUNCTION  -nan(ind)     0.00  1094.64     0  00:00        0.00
  TAF076               JUNCTION  -nan(ind)     0.00  1193.84     0  00:00        0.00
  TAF077               JUNCTION  -nan(ind)     0.00  1197.47     0  00:00        0.00
  TAF078               JUNCTION  -nan(ind)     0.00  1181.40     0  00:00        0.00
  TAF079               JUNCTION  -nan(ind)     0.00  1097.76     0  00:00        0.00
  TAF080               JUNCTION  -nan(ind)     0.00  1205.65     0  00:00        0.00
  TAF081               JUNCTION  -nan(ind)     0.00  1187.89     0  00:00        0.00
  TAF082               JUNCTION  -nan(ind)     0.00  1100.44     0  00:00        0.00
  TAF083               JUNCTION  -nan(ind)     0.00  1104.19     0  00:00        0.00
  TAF084               JUNCTION  -nan(ind)     0.00  1108.96     0  00:00        0.00
  TAF085               JUNCTION  -nan(ind)     0.00  1110.58     0  00:00        0.00
  TAF086               JUNCTION  -nan(ind)     0.00  1111.87     0  00:00        0.00
  TAF087               JUNCTION  -nan(ind)     0.00  1128.89     0  00:00        0.00
  TAF088               JUNCTION  -nan(ind)     0.00  1132.00     0  00:00        0.00
  TAF089               JUNCTION  -nan(ind)     0.00  1116.81     0  00:00        0.00
  TAF090               JUNCTION  -nan(ind)     0.00  1117.98     0  00:00        0.00
  TAF091               JUNCTION  -nan(ind)     0.00  1138.77     0  00:00        0.00
  TAF092               JUNCTION  -nan(ind)     0.00  1119.90     0  00:00        0.00
  TAF093               JUNCTION  -nan(ind)     0.00  1121.65     0  00:00        0.00
  TAF094               JUNCTION  -nan(ind)     0.00  1144.37     0  00:00        0.00
  TAF095               JUNCTION  -nan(ind)     0.00  1124.73     0  00:00        0.00
  TAF096               JUNCTION  -nan(ind)     0.00  1149.99     0  00:00        0.00
  TAF097               JUNCTION  -nan(ind)     0.00  1127.52     0  00:00        0.00
  TAF098               JUNCTION  -nan(ind)     0.00  1128.00     0  00:00        0.00
  TAF099               JUNCTION  -nan(ind)     0.00  1158.67     0  00:00        0.00
  TAF100               JUNCTION  -nan(ind)     0.00  1128.65     0  00:00        0.00
  TAF101               JUNCTION  -nan(ind)     0.00  1129.82     0  00:00        0.00
  TAF102               JUNCTION  -nan(ind)     0.00  1130.90     0  00:00        0.00
  TAF103               JUNCTION  -nan(ind)     0.00  1160.91     0  00:00        0.00
  TAF104               JUNCTION  -nan(ind)     0.00  1134.00     0  00:00        0.00
  TAF105               JUNCTION  -nan(ind)     0.00  1162.63     0  00:00        0.00
  TAF106               JUNCTION  -nan(ind)     0.00  1134.01     0  00:00        0.00
  TAF107               JUNCTION  -nan(ind)     0.00  1137.58     0  00:00        0.00
  TAF108               JUNCTION  -nan(ind)     0.00  1169.24     0  00:00        0.00
  TAF109               JUNCTION  -nan(ind)     0.00  1149.94     0  00:00        0.00
  TAF110               JUNCTION  -nan(ind)     0.00  1140.30     0  00:00        0.00
  TAF111               JUNCTION  -nan(ind)     0.00  1147.65     0  00:00        0.00
  TAF112               JUNCTION  -nan(ind)     0.00  1148.89     0  00:00        0.00
  TAF113               JUNCTION  -nan(ind)     0.00  1180.46     0  00:00        0.00
  TAF114               JUNCTION  -nan(ind)     0.00  1153.13     0  00:00        0.00
  TAF115               JUNCTION  -nan(ind)     0.00  1150.95     0  00:00        0.00
  TAF116               JUNCTION  -nan(ind)     0.00  1182.40     0  00:00        0.00
  TAF117               JUNCTION  -nan(ind)     0.00  1150.68     0  00:00        0.00
  TAF118               JUNCTION  -nan(ind)     0.00  1154.57     0  00:00        0.00
  TAF119               JUNCTION  -nan(ind)     0.00  1154.52     0  00:00        0.00
  TAF120               JUNCTION  -nan(ind)     0.00  1157.34     0  00:00        0.00
  TAF121               JUNCTION  -nan(ind)     0.00  1168.07     0  00:00        0.00
  TAF122               JUNCTION  -nan(ind)     0.00  1155.64     0  00:00        0.00
  TAF123               JUNCTION  -nan(ind)     0.00  1160.36     0  00:00        0.00
  TAF124               JUNCTION  -nan(ind)     0.00  1174.48     0  00:00        0.00
  TAF125               JUNCTION  -nan(ind)     0.00  1188.15     0  00:00        0.00
  TAF126               JUNCTION  -nan(ind)     0.00  1189.57     0  00:00        0.00
  TAF127               JUNCTION  -nan(ind)     0.00  1199.78     0  00:00        0.00
  TAF128               JUNCTION  -nan(ind)     0.00  1194.21     0  00:00        0.00
  TAF129               JUNCTION  -nan(ind)     0.00  1212.26     0  00:00        0.00
  TAF130               JUNCTION  -nan(ind)     0.00  1198.30     0  00:00        0.00
  TAF131               JUNCTION  -nan(ind)     0.00  1131.13     0  00:00        0.00
  TAF132               JUNCTION  -nan(ind)     0.00  1132.96     0  00:00        0.00
  TAF133               JUNCTION  -nan(ind)     0.00  1217.03     0  00:00        0.00
  TAF134               JUNCTION  -nan(ind)     0.00  1134.50     0  00:00        0.00
  TAF135               JUNCTION  -nan(ind)     0.00  1222.91     0  00:00        0.00
  TAF136               JUNCTION  -nan(ind)     0.00  1136.71     0  00:00        0.00
  TAF137               JUNCTION  -nan(ind)     0.00  1223.64     0  00:00        0.00
  TAF138               JUNCTION  -nan(ind)     0.00  1160.08     0  00:00        0.00
  TAF139               JUNCTION  -nan(ind)     0.00  1224.36     0  00:00        0.00
  TAF140               JUNCTION  -nan(ind)     0.00  1137.81     0  00:00        0.00
  TAF141               JUNCTION  -nan(ind)     0.00  1137.99     0  00:00        0.00
  TAF142               JUNCTION  -nan(ind)     0.00  1226.59     0  00:00        0.00
  TAF143               JUNCTION  -nan(ind)     0.00  1237.73     0  00:00        0.00
  TAF144               JUNCTION  -nan(ind)     0.00  1139.57     0  00:00        0.00
  TAF145               JUNCTION  -nan(ind)     0.00  1245.77     0  00:00        0.00
  TAF146               JUNCTION  -nan(ind)     0.00  1230.35     0  00:00        0.00
  TAF147               JUNCTION  -nan(ind)     0.00  1139.70     0  00:00        0.00
  TAF148               JUNCTION  -nan(ind)     0.00  1162.42     0  00:00        0.00
  TAF149               JUNCTION  -nan(ind)     0.00  1140.22     0  00:00        0.00
  TAF150               JUNCTION  -nan(ind)     0.00  1246.98     0  00:00        0.00
  TAF151               JUNCTION  -nan(ind)     0.00  1249.42     0  00:00        0.00
  TAF152               JUNCTION  -nan(ind)     0.00  1247.39     0  00:00        0.00
  TAF153               JUNCTION  -nan(ind)     0.00  1250.96     0  00:00        0.00
  TAF154               JUNCTION  -nan(ind)     0.00  1164.86     0  00:00        0.00
  TAF155               JUNCTION  -nan(ind)     0.00  1174.36     0  00:00        0.00
  TAF156               JUNCTION  -nan(ind)     0.00  1250.05     0  00:00        0.00
  TAF157               JUNCTION  -nan(ind)     0.00  1265.31     0  00:00        0.00
  TAF158               JUNCTION  -nan(ind)     0.00  1176.88     0  00:00        0.00
  TAF159               JUNCTION  -nan(ind)     0.00  1251.65     0  00:00        0.00
  TAF160               JUNCTION  -nan(ind)     0.00  1178.31     0  00:00        0.00
  TAF161               JUNCTION  -nan(ind)     0.00  1252.38     0  00:00        0.00
  TAF162               JUNCTION  -nan(ind)     0.00  1253.56     0  00:00        0.00
  TAF163               JUNCTION  -nan(ind)     0.00  1179.53     0  00:00        0.00
  TAF164               JUNCTION  -nan(ind)     0.00  1180.20     0  00:00        0.00
  TAF165               JUNCTION  -nan(ind)     0.00  1255.14     0  00:00        0.00
  TAF166               JUNCTION  -nan(ind)     0.00  1181.58     0  00:00        0.00
  TAF167               JUNCTION  -nan(ind)     0.00  1182.30     0  00:00        0.00
  TAF168               JUNCTION  -nan(ind)     0.00  1256.39     0  00:00        0.00
  TAF169               JUNCTION  -nan(ind)     0.00  1183.59     0  00:00        0.00
  TAF170               JUNCTION  -nan(ind)     0.00  1257.05     0  00:00        0.00
  TAF171               JUNCTION  -nan(ind)     0.00  1186.02     0  00:00        0.00
  TAF172               JUNCTION  -nan(ind)     0.00  1186.65     0  00:00        0.00
  TAF173               JUNCTION  -nan(ind)     0.00  1202.40     0  00:00        0.00
  TAF174               JUNCTION  -nan(ind)     0.00  1204.52     0  00:00        0.00
  TAF175               JUNCTION  -nan(ind)     0.00  1206.40     0  00:00        0.00
  TAF176               JUNCTION  -nan(ind)     0.00  1213.46     0  00:00        0.00
  TAF177               JUNCTION  -nan(ind)     0.00  1204.86     0  00:00        0.00
  THO001               JUNCTION  -nan(ind)     0.00  1081.91     0  00:00        0.00
  THO002               JUNCTION  -nan(ind)     0.00  1085.22     0  00:00        0.00
  THO003               JUNCTION  -nan(ind)     0.00  1084.54     0  00:00        0.00
  THO004               JUNCTION  -nan(ind)     0.00  1087.53     0  00:00        0.00
  THO005               JUNCTION  -nan(ind)     0.00  1089.73     0  00:00        0.00
  THO006               JUNCTION  -nan(ind)     0.00  1090.15     0  00:00        0.00
  THO007               JUNCTION  -nan(ind)     0.00  1091.45     0  00:00        0.00
  THO008               JUNCTION  -nan(ind)     0.00  1092.18     0  00:00        0.00
  THO009               JUNCTION  -nan(ind)     0.00  1092.38     0  00:00        0.00
  THO010               JUNCTION  -nan(ind)     0.00  1092.53     0  00:00        0.00
  THO011               JUNCTION  -nan(ind)     0.00  1093.79     0  00:00        0.00
  THO012               JUNCTION  -nan(ind)     0.00  1095.69     0  00:00        0.00
  THO013               JUNCTION  -nan(ind)     0.00  1095.25     0  00:00        0.00
  THO014               JUNCTION  -nan(ind)     0.00  1095.79     0  00:00        0.00
  THO015               JUNCTION  -nan(ind)     0.00  1107.73     0  00:00        0.00
  THO016               JUNCTION  -nan(ind)     0.00  1097.56     0  00:00        0.00
  THO017               JUNCTION  -nan(ind)     0.00  1118.87     0  00:00        0.00
  THO018               JUNCTION  -nan(ind)     0.00  1097.30     0  00:00        0.00
  THO019               JUNCTION  -nan(ind)     0.00  1109.19     0  00:00        0.00
  THO020               JUNCTION  -nan(ind)     0.00  1115.51     0  00:00        0.00
  THO021               JUNCTION  -nan(ind)     0.00  1110.00     0  00:00        0.00
  THO022               JUNCTION  -nan(ind)     0.00  1111.51     0  00:00        0.00
  THO023               JUNCTION  -nan(ind)     0.00  1117.76     0  00:00        0.00
  THO024               JUNCTION  -nan(ind)     0.00  1127.87     0  00:00        0.00
  THO025               JUNCTION  -nan(ind)     0.00  1128.71     0  00:00        0.00
  THO026               JUNCTION  -nan(ind)     0.00  1125.34     0  00:00        0.00
  THO027               JUNCTION  -nan(ind)     0.00  1126.95     0  00:00        0.00
  THO029               JUNCTION  -nan(ind)     0.00  1144.00     0  00:00        0.00
  THO030               JUNCTION  -nan(ind)     0.00  1129.32     0  00:00        0.00
  THO031               JUNCTION  -nan(ind)     0.00  1122.21     0  00:00        0.00
  THO032               JUNCTION  -nan(ind)     0.00  1145.31     0  00:00        0.00
  THO033               JUNCTION  -nan(ind)     0.00  1131.60     0  00:00        0.00
  THO034               JUNCTION  -nan(ind)     0.00  1145.88     0  00:00        0.00
  THO035               JUNCTION  -nan(ind)     0.00  1145.24     0  00:00        0.00
  THO036               JUNCTION  -nan(ind)     0.00  1144.17     0  00:00        0.00
  THO037               JUNCTION  -nan(ind)     0.00  1133.45     0  00:00        0.00
  THO038               JUNCTION  -nan(ind)     0.00  1102.96     0  00:00        0.00
  THO039               JUNCTION  -nan(ind)     0.00  1148.02     0  00:00        0.00
  THO040               JUNCTION  -nan(ind)     0.00  1145.27     0  00:00        0.00
  THO041               JUNCTION  -nan(ind)     0.00  1133.70     0  00:00        0.00
  THO042               JUNCTION  -nan(ind)     0.00  1156.16     0  00:00        0.00
  THO043               JUNCTION  -nan(ind)     0.00  1113.97     0  00:00        0.00
  THO044               JUNCTION  -nan(ind)     0.00  1159.87     0  00:00        0.00
  THO045               JUNCTION  -nan(ind)     0.00  1146.57     0  00:00        0.00
  THO046               JUNCTION  -nan(ind)     0.00  1146.57     0  00:00        0.00
  THO047               JUNCTION  -nan(ind)     0.00  1147.97     0  00:00        0.00
  THO048               JUNCTION  -nan(ind)     0.00  1125.41     0  00:00        0.00
  THO049               JUNCTION  -nan(ind)     0.00  1127.34     0  00:00        0.00
  THO050               JUNCTION  -nan(ind)     0.00  1159.63     0  00:00        0.00
  THO051               JUNCTION  -nan(ind)     0.00  1166.35     0  00:00        0.00
  THO052               JUNCTION  -nan(ind)     0.00  1147.59     0  00:00        0.00
  THO053               JUNCTION  -nan(ind)     0.00  1161.43     0  00:00        0.00
  THO054               JUNCTION  -nan(ind)     0.00  1151.17     0  00:00        0.00
  THO055               JUNCTION  -nan(ind)     0.00  1139.16     0  00:00        0.00
  THO056               JUNCTION  -nan(ind)     0.00  1139.58     0  00:00        0.00
  THO057               JUNCTION  -nan(ind)     0.00  1164.59     0  00:00        0.00
  THO058               JUNCTION  -nan(ind)     0.00  1142.90     0  00:00        0.00
  THO059               JUNCTION  -nan(ind)     0.00  1165.50     0  00:00        0.00
  THO060               JUNCTION  -nan(ind)     0.00  1152.05     0  00:00        0.00
  THO061               JUNCTION  -nan(ind)     0.00  1166.92     0  00:00        0.00
  THO062               JUNCTION  -nan(ind)     0.00  1167.84     0  00:00        0.00
  THO063               JUNCTION  -nan(ind)     0.00  1167.97     0  00:00        0.00
  THO064               JUNCTION  -nan(ind)     0.00  1174.37     0  00:00        0.00
  THO065               JUNCTION  -nan(ind)     0.00  1149.77     0  00:00        0.00
  THO066               JUNCTION  -nan(ind)     0.00  1170.87     0  00:00        0.00
  THO067               JUNCTION  -nan(ind)     0.00  1169.96     0  00:00        0.00
  THO068               JUNCTION  -nan(ind)     0.00  1203.49     0  00:00        0.00
  THO069               JUNCTION  -nan(ind)     0.00  1170.74     0  00:00        0.00
  THO070               JUNCTION  -nan(ind)     0.00  1160.25     0  00:00        0.00
  THO071               JUNCTION  -nan(ind)     0.00  1158.28     0  00:00        0.00
  THO072               JUNCTION  -nan(ind)     0.00  1171.56     0  00:00        0.00
  THO073               JUNCTION  -nan(ind)     0.00  1172.83     0  00:00        0.00
  THO074               JUNCTION  -nan(ind)     0.00  1163.72     0  00:00        0.00
  THO075               JUNCTION  -nan(ind)     0.00  1189.80     0  00:00        0.00
  THO076               JUNCTION  -nan(ind)     0.00  1232.15     0  00:00        0.00
  THO077               JUNCTION  -nan(ind)     0.00  1167.85     0  00:00        0.00
  THO078               JUNCTION  -nan(ind)     0.00  1169.33     0  00:00        0.00
  THO079               JUNCTION  -nan(ind)     0.00  1164.78     0  00:00        0.00
  THO080               JUNCTION  -nan(ind)     0.00  1170.39     0  00:00        0.00
  THO081               JUNCTION  -nan(ind)     0.00  1193.08     0  00:00        0.00
  THO082               JUNCTION  -nan(ind)     0.00  1193.77     0  00:00        0.00
  THO083               JUNCTION  -nan(ind)     0.00  1181.71     0  00:00        0.00
  THO084               JUNCTION  -nan(ind)     0.00  1166.60     0  00:00        0.00
  THO085               JUNCTION  -nan(ind)     0.00  1169.19     0  00:00        0.00
  THO086               JUNCTION  -nan(ind)     0.00  1198.96     0  00:00        0.00
  THO087               JUNCTION  -nan(ind)     0.00  1203.20     0  00:00        0.00
  THO088               JUNCTION  -nan(ind)     0.00  1203.40     0  00:00        0.00
  THO089               JUNCTION  -nan(ind)     0.00  1201.54     0  00:00        0.00
  THO090               JUNCTION  -nan(ind)     0.00  1204.93     0  00:00        0.00
  THO091               JUNCTION  -nan(ind)     0.00  1202.29     0  00:00        0.00
  THO092               JUNCTION  -nan(ind)     0.00  1203.37     0  00:00        0.00
  THO093               JUNCTION  -nan(ind)     0.00  1206.44     0  00:00        0.00
  THO094               JUNCTION  -nan(ind)     0.00  1205.26     0  00:00        0.00
  THO095               JUNCTION  -nan(ind)     0.00  1211.64     0  00:00        0.00
  THO096               JUNCTION  -nan(ind)     0.00  1151.44     0  00:00        0.00
  THO097               JUNCTION  -nan(ind)     0.00  1154.12     0  00:00        0.00
  THO098               JUNCTION  -nan(ind)     0.00  1163.70     0  00:00        0.00
  THO099               JUNCTION  -nan(ind)     0.00  1154.06     0  00:00        0.00
  THO100               JUNCTION  -nan(ind)     0.00  1155.48     0  00:00        0.00
  THO101               JUNCTION  -nan(ind)     0.00  1164.35     0  00:00        0.00
  THO102               JUNCTION  -nan(ind)     0.00  1164.74     0  00:00        0.00
  THO103               JUNCTION  -nan(ind)     0.00  1154.77     0  00:00        0.00
  THO104               JUNCTION  -nan(ind)     0.00  1156.74     0  00:00        0.00
  THO105               JUNCTION  -nan(ind)     0.00  1165.51     0  00:00        0.00
  THO106               JUNCTION  -nan(ind)     0.00  1176.10     0  00:00        0.00
  THO107               JUNCTION  -nan(ind)     0.00  1157.29     0  00:00        0.00
  THO108               JUNCTION  -nan(ind)     0.00  1171.76     0  00:00        0.00
  THO109               JUNCTION  -nan(ind)     0.00  1182.98     0  00:00        0.00
  THO110               JUNCTION  -nan(ind)     0.00  1172.24     0  00:00        0.00
  THO111               JUNCTION  -nan(ind)     0.00  1161.31     0  00:00        0.00
  THO112               JUNCTION  -nan(ind)     0.00  1172.49     0  00:00        0.00
  THO113               JUNCTION  -nan(ind)     0.00  1175.11     0  00:00        0.00
  THO114               JUNCTION  -nan(ind)     0.00  1166.87     0  00:00        0.00
  THO115               JUNCTION  -nan(ind)     0.00  1167.00     0  00:00        0.00
  THO116               JUNCTION  -nan(ind)     0.00  1173.17     0  00:00        0.00
  THO117               JUNCTION  -nan(ind)     0.00  1176.71     0  00:00        0.00
  THO118               JUNCTION  -nan(ind)     0.00  1173.64     0  00:00        0.00
  THO119               JUNCTION  -nan(ind)     0.00  1163.07     0  00:00        0.00
  THO120               JUNCTION  -nan(ind)     0.00  1168.57     0  00:00        0.00
  THO121               JUNCTION  -nan(ind)     0.00  1168.47     0  00:00        0.00
  THO122               JUNCTION  -nan(ind)     0.00  1169.20     0  00:00        0.00
  THO123               JUNCTION  -nan(ind)     0.00  1173.98     0  00:00        0.00
  THO124               JUNCTION  -nan(ind)     0.00  1178.42     0  00:00        0.00
  THO125               JUNCTION  -nan(ind)     0.00  1177.84     0  00:00        0.00
  THO126               JUNCTION  -nan(ind)     0.00  1163.60     0  00:00        0.00
  THO127               JUNCTION  -nan(ind)     0.00  1169.06     0  00:00        0.00
  THO128               JUNCTION  -nan(ind)     0.00  1170.28     0  00:00        0.00
  THO129               JUNCTION  -nan(ind)     0.00  1179.53     0  00:00        0.00
  THO130               JUNCTION  -nan(ind)     0.00  1164.75     0  00:00        0.00
  THO131               JUNCTION  -nan(ind)     0.00  1177.63     0  00:00        0.00
  THO132               JUNCTION  -nan(ind)     0.00  1166.27     0  00:00        0.00
  THO133               JUNCTION  -nan(ind)     0.00  1186.16     0  00:00        0.00
  THO134               JUNCTION  -nan(ind)     0.00  1204.95     0  00:00        0.00
  THO135               JUNCTION  -nan(ind)     0.00  1188.59     0  00:00        0.00
  THO136               JUNCTION  -nan(ind)     0.00  1167.08     0  00:00        0.00
  THO137               JUNCTION  -nan(ind)     0.00  1172.34     0  00:00        0.00
  THO138               JUNCTION  -nan(ind)     0.00  1178.47     0  00:00        0.00
  THO139               JUNCTION  -nan(ind)     0.00  1192.23     0  00:00        0.00
  THO140               JUNCTION  -nan(ind)     0.00  1169.01     0  00:00        0.00
  THO141               JUNCTION  -nan(ind)     0.00  1176.85     0  00:00        0.00
  THO142               JUNCTION  -nan(ind)     0.00  1179.08     0  00:00        0.00
  THO143               JUNCTION  -nan(ind)     0.00  1186.88     0  00:00        0.00
  THO144               JUNCTION  -nan(ind)     0.00  1177.21     0  00:00        0.00
  THO145               JUNCTION  -nan(ind)     0.00  1198.81     0  00:00        0.00
  THO146               JUNCTION  -nan(ind)     0.00  1170.68     0  00:00        0.00
  THO147               JUNCTION  -nan(ind)     0.00  1175.42     0  00:00        0.00
  THO148               JUNCTION  -nan(ind)     0.00  1210.26     0  00:00        0.00
  THO149               JUNCTION  -nan(ind)     0.00  1176.54     0  00:00        0.00
  THO150               JUNCTION  -nan(ind)     0.00  1174.26     0  00:00        0.00
  THO151               JUNCTION  -nan(ind)     0.00  1175.71     0  00:00        0.00
  THO152               JUNCTION  -nan(ind)     0.00  1177.51     0  00:00        0.00
  THO153               JUNCTION  -nan(ind)     0.00  1179.26     0  00:00        0.00
  THO154               JUNCTION  -nan(ind)     0.00  1180.42     0  00:00        0.00
  THO155               JUNCTION  -nan(ind)     0.00  1197.27     0  00:00        0.00
  THO156               JUNCTION  -nan(ind)     0.00  1182.08     0  00:00        0.00
  THO157               JUNCTION  -nan(ind)     0.00  1219.38     0  00:00        0.00
  THO158               JUNCTION  -nan(ind)     0.00  1183.45     0  00:00        0.00
  THO159               JUNCTION  -nan(ind)     0.00  1207.95     0  00:00        0.00
  THO160               JUNCTION  -nan(ind)     0.00  1218.52     0  00:00        0.00
  THO161               JUNCTION  -nan(ind)     0.00  1186.68     0  00:00        0.00
  THO162               JUNCTION  -nan(ind)     0.00  1203.50     0  00:00        0.00
  THO163               JUNCTION  -nan(ind)     0.00  1187.99     0  00:00        0.00
  THO164               JUNCTION  -nan(ind)     0.00  1188.39     0  00:00        0.00
  THO165               JUNCTION  -nan(ind)     0.00  1155.45     0  00:00        0.00
  THO166               JUNCTION  -nan(ind)     0.00  1169.53     0  00:00        0.00
  THO167               JUNCTION  -nan(ind)     0.00  1156.05     0  00:00        0.00
  THO168               JUNCTION  -nan(ind)     0.00  1156.83     0  00:00        0.00
  THO169               JUNCTION  -nan(ind)     0.00  1177.88     0  00:00        0.00
  THO170               JUNCTION  -nan(ind)     0.00  1214.99     0  00:00        0.00
  THO171               JUNCTION  -nan(ind)     0.00  1166.84     0  00:00        0.00
  THO172               JUNCTION  -nan(ind)     0.00  1218.55     0  00:00        0.00
  THO173               JUNCTION  -nan(ind)     0.00  1183.67     0  00:00        0.00
  THO174               JUNCTION  -nan(ind)     0.00  1184.25     0  00:00        0.00
  THO175               JUNCTION  -nan(ind)     0.00  1220.31     0  00:00        0.00
  THO176               JUNCTION  -nan(ind)     0.00  1185.89     0  00:00        0.00
  THO177               JUNCTION  -nan(ind)     0.00  1187.02     0  00:00        0.00
  THO178               JUNCTION  -nan(ind)     0.00  1185.05     0  00:00        0.00
  THO179               JUNCTION  -nan(ind)     0.00  1188.15     0  00:00        0.00
  THO180               JUNCTION  -nan(ind)     0.00  1190.19     0  00:00        0.00
  THO181               JUNCTION  -nan(ind)     0.00  1185.75     0  00:00        0.00
  THO182               JUNCTION  -nan(ind)     0.00  1222.77     0  00:00        0.00
  THO183               JUNCTION  -nan(ind)     0.00  1191.94     0  00:00        0.00
  THO184               JUNCTION  -nan(ind)     0.00  1186.48     0  00:00        0.00
  THO185               JUNCTION  -nan(ind)     0.00  1193.54     0  00:00        0.00
  THO186               JUNCTION  -nan(ind)     0.00  1194.36     0  00:00        0.00
  THO187               JUNCTION  -nan(ind)     0.00  1204.04     0  00:00        0.00
  THO188               JUNCTION  -nan(ind)     0.00  1195.38     0  00:00        0.00
  THO189               JUNCTION  -nan(ind)     0.00  1183.45     0  00:00        0.00
  THO190               JUNCTION  -nan(ind)     0.00  1174.72     0  00:00        0.00
  THO191               JUNCTION  -nan(ind)     0.00  1168.80     0  00:00        0.00
  THO192               JUNCTION  -nan(ind)     0.00  1212.77     0  00:00        0.00
  WRF001               JUNCTION  -nan(ind)     0.00  1012.11     0  00:00        0.00
  WRF002               JUNCTION  -nan(ind)     0.00  1011.96     0  00:00        0.00
  MH-1ic               JUNCTION  -nan(ind)     0.00  1119.73     0  00:00        0.00
  MH-2ic               JUNCTION  -nan(ind)     0.00  1116.48     0  00:00        0.00
  MH-3ic               JUNCTION  -nan(ind)     0.00  1111.83     0  00:00        0.00
  MH-4ic               JUNCTION  -nan(ind)     0.00  1102.40     0  00:00        0.00
  MH-5ic               JUNCTION  -nan(ind)     0.00  1090.10     0  00:00        0.00
  MH-6ic               JUNCTION  -nan(ind)     0.00  1086.92     0  00:00        0.00
  THO028               JUNCTION  -nan(ind)     0.00  1099.87     0  00:00        0.00
  MH-13                JUNCTION  -nan(ind)     0.00  1182.50     0  00:00        0.00
  MH-14                JUNCTION  -nan(ind)     0.00  1193.00     0  00:00        0.00
  J-1                  JUNCTION  -nan(ind)     0.00  1093.42     0  00:00        0.00
  J-10                 JUNCTION  -nan(ind)     0.00  1094.00     0  00:00        0.00
  J-11                 JUNCTION  -nan(ind)     0.00  1155.48     0  00:00        0.00
  J-12                 JUNCTION  -nan(ind)     0.00  1036.00     0  00:00        0.00
  J-13                 JUNCTION  -nan(ind)     0.00  1120.95     0  00:00        0.00
  J-14                 JUNCTION  -nan(ind)     0.00  1147.40     0  00:00        0.00
  J-15                 JUNCTION  -nan(ind)     0.00  1165.10     0  00:00        0.00
  J-16                 JUNCTION  -nan(ind)     0.00  1158.20     0  00:00        0.00
  J-17                 JUNCTION  -nan(ind)     0.00  1198.90     0  00:00        0.00
  J-18                 JUNCTION  -nan(ind)     0.00  1193.77     0  00:00        0.00
  J-19                 JUNCTION  -nan(ind)     0.00  1148.60     0  00:00        0.00
  J-22                 JUNCTION  -nan(ind)     0.00  1205.00     0  00:00        0.00
  AV-4                 JUNCTION  -nan(ind)     0.00  1203.00     0  00:00        0.00
  AV-6                 JUNCTION  -nan(ind)     0.00  1280.00     0  00:00        0.00
  AV-8                 JUNCTION  -nan(ind)     0.00  1170.00     0  00:00        0.00
  PMP-TC1_Junction     JUNCTION  -nan(ind)     0.00  1075.00     0  00:00        0.00
  PMP-TC2_Junction     JUNCTION  -nan(ind)     0.00  1075.00     0  00:00        0.00
  PMP-DP2_Junction     JUNCTION  -nan(ind)     0.00  1083.00     0  00:00        0.00
  PMP-DP1_Junction     JUNCTION  -nan(ind)     0.00  1083.00     0  00:00        0.00
  PMP-Oak1_Junction    JUNCTION  -nan(ind)     0.00  1143.30     0  00:00        0.00
  PMP-Oak2_Junction    JUNCTION  -nan(ind)     0.00  1143.30     0  00:00        0.00
  PMP-DF1_Junction     JUNCTION  -nan(ind)     0.00  1002.00     0  00:00        0.00
  PMP-DF2_Junction     JUNCTION  -nan(ind)     0.00  1002.00     0  00:00        0.00
  PMP-RV1_Junction     JUNCTION  -nan(ind)     0.00  1110.00     0  00:00        0.00
  PMP-RV2_Junction     JUNCTION  -nan(ind)     0.00  1110.00     0  00:00        0.00
  PMP-Ch1_Junction     JUNCTION  -nan(ind)     0.00  1111.90     0  00:00        0.00
  PMP-Ch2_Junction     JUNCTION  -nan(ind)     0.00  1111.90     0  00:00        0.00
  PMP-WW1_Junction     JUNCTION  -nan(ind)     0.00  1153.60     0  00:00        0.00
  PMP-WW2_Junction     JUNCTION  -nan(ind)     0.00  1153.60     0  00:00        0.00
  PMP-Kr1_Junction     JUNCTION  -nan(ind)     0.00  1143.20     0  00:00        0.00
  PMP-Kr2_Junction     JUNCTION  -nan(ind)     0.00  1143.20     0  00:00        0.00
  PMP-TT1_Junction     JUNCTION  -nan(ind)     0.00  1178.00     0  00:00        0.00
  PMP-TT2_Junction     JUNCTION  -nan(ind)     0.00  1178.00     0  00:00        0.00
  PMP-Mc1_Junction     JUNCTION  -nan(ind)     0.00  1183.50     0  00:00        0.00
  PMP-Mc2_Junction     JUNCTION  -nan(ind)     0.00  1183.50     0  00:00        0.00
  PMP-CC1_Junction     JUNCTION  -nan(ind)     0.00  1143.90     0  00:00        0.00
  PMP-CC2_Junction     JUNCTION  -nan(ind)     0.00  1143.90     0  00:00        0.00
  PMP-Ing1_Junction    JUNCTION  -nan(ind)     0.00  1197.50     0  00:00        0.00
  PMP-Ing2_Junction    JUNCTION  -nan(ind)     0.00  1197.50     0  00:00        0.00
  OF-Dawson_Forest_WRF OUTFALL   -nan(ind)     0.00  1072.67     0  00:00        0.00
  WW-Chealse           STORAGE   -nan(ind)     0.00  1111.90     0  00:00        0.00
  WW-County_Cupboard   STORAGE   -nan(ind)     0.00  1191.90     0  00:00        0.00
  WW-Dawson_Pointe     STORAGE   -nan(ind)     0.00  1084.50     0  00:00        0.00
  WW-Ingles            STORAGE   -nan(ind)     0.00  1197.50     0  00:00        0.00
  WW-McDonald's        STORAGE   -nan(ind)     0.00  1183.50     0  00:00        0.00
  WW-Oak_Monte         STORAGE   -nan(ind)     0.00  1143.30     0  00:00        0.00
  WW-TelTek            STORAGE   -nan(ind)     0.00  1178.00     0  00:00        0.00
  WW-Thompson_Cr       STORAGE   -nan(ind)     0.00  1075.00     0  00:00        0.00
  WW-Worldwide         STORAGE   -nan(ind)     0.00  1153.60     0  00:00        0.00
  WW-Kroger_           STORAGE   -nan(ind)     0.00  1143.20     0  00:00        0.00
  WW-Riverview_        STORAGE   -nan(ind)     0.00  1110.00     0  00:00        0.00
  WW-WRF_              STORAGE   -nan(ind)     0.00  1002.00     0  00:00        0.00
  
  
  *******************
  Node Inflow Summary
  *******************
  
  -------------------------------------------------------------------------------------------------
                                  Maximum  Maximum                  Lateral       Total        Flow
                                  Lateral    Total  Time of Max      Inflow      Inflow     Balance
                                   Inflow   Inflow   Occurrence      Volume      Volume       Error
  Node                 Type           CFS      CFS  days hr:min    10^6 gal    10^6 gal     Percent
  -------------------------------------------------------------------------------------------------
  BLM001               JUNCTION      0.00     0.00     0  00:00           0           0       0.000 gal
  BLM002               JUNCTION      0.00     0.00     0  00:00           0           0       0.000 gal
  BLM003               JUNCTION      0.00     0.00     0  00:00           0           0       0.000 gal
  BLM004               JUNCTION      0.00     0.00     0  00:00           0           0       0.000 gal
  BLM005               JUNCTION      0.00     0.00     0  00:00           0           0       0.000 gal
  BLM006               JUNCTION      0.00     0.00     0  00:00           0           0       0.000 gal
  BLM007               JUNCTION      0.00     0.00     0  00:00           0           0       0.000 gal
  BLM008               JUNCTION      0.00     0.00     0  00:00           0           0       0.000 gal
  BLM009               JUNCTION      0.00     0.00     0  00:00           0           0       0.000 gal
  BLM010               JUNCTION      0.00     0.00     0  00:00           0           0       0.000 gal
  BLM011               JUNCTION      0.00     0.00     0  00:00           0           0       0.000 gal
  BLM012               JUNCTION      0.00     0.00     0  00:00           0           0       0.000 gal
  BLM013               JUNCTION      0.00     0.00     0  00:00           0           0       0.000 gal
  BLM014               JUNCTION      0.00     0.00     0  00:00           0           0       0.000 gal
  BLM015               JUNCTION      0.00     0.00     0  00:00           0           0       0.000 gal
  BLM016               JUNCTION      0.00     0.00     0  00:00           0           0       0.000 gal
  BLM017               JUNCTION      0.00     0.00     0  00:00           0           0       0.000 gal
  BLM018               JUNCTION      0.00     0.00     0  00:00           0           0       0.000 gal
  BLM019               JUNCTION      0.00     0.00     0  00:00           0           0       0.000 gal
  BLM020               JUNCTION      0.00     0.00     0  00:00           0           0       0.000 gal
  BLM021               JUNCTION      0.00     0.00     0  00:00           0           0       0.000 gal
  BLM022               JUNCTION      0.00     0.00     0  00:00           0           0       0.000 gal
  BLM023               JUNCTION      0.00     0.00     0  00:00           0           0       0.000 gal
  BLM024               JUNCTION      0.00     0.00     0  00:00           0           0       0.000 gal
  BLM025               JUNCTION      0.00     0.00     0  00:00           0           0       0.000 gal
  BLM026               JUNCTION      0.00     0.00     0  00:00           0           0       0.000 gal
  BLM027               JUNCTION      0.00     0.00     0  00:00           0           0       0.000 gal
  BLM028               JUNCTION      0.00     0.00     0  00:00           0           0       0.000 gal
  BLM029               JUNCTION      0.00     0.00     0  00:00           0           0       0.000 gal
  BLM030               JUNCTION      0.00     0.00     0  00:00           0           0       0.000 gal
  BLM031               JUNCTION      0.00     0.00     0  00:00           0           0       0.000 gal
  BLM032               JUNCTION      0.00     0.00     0  00:00           0           0       0.000 gal
  BLM033               JUNCTION      0.00     0.00     0  00:00           0           0       0.000 gal
  BLM034               JUNCTION      0.00     0.00     0  00:00           0           0       0.000 gal
  BLM035               JUNCTION      0.00     0.00     0  00:00           0           0       0.000 gal
  BLM036               JUNCTION      0.00     0.00     0  00:00           0           0       0.000 gal
  BLM037               JUNCTION      0.00     0.00     0  00:00           0           0       0.000 gal
  BLM038               JUNCTION      0.00     0.00     0  00:00           0           0       0.000 gal
  BLM039               JUNCTION      0.00     0.00     0  00:00           0           0       0.000 gal
  BLM040               JUNCTION      0.00     0.00     0  00:00           0           0       0.000 gal
  BLM041               JUNCTION      0.00     0.00     0  00:00           0           0       0.000 gal
  BLM042               JUNCTION      0.00     0.00     0  00:00           0           0       0.000 gal
  BLM043               JUNCTION      0.00     0.00     0  00:00           0           0       0.000 gal
  BLM044               JUNCTION      0.00     0.00     0  00:00           0           0       0.000 gal
  BLM045               JUNCTION      0.00     0.00     0  00:00           0           0       0.000 gal
  BLM046               JUNCTION      0.00     0.00     0  00:00           0           0       0.000 gal
  BLM047               JUNCTION      0.00     0.00     0  00:00           0           0       0.000 gal
  BLM048               JUNCTION      0.00     0.00     0  00:00           0           0       0.000 gal
  BLM049               JUNCTION      0.00     0.00     0  00:00           0           0       0.000 gal
  BLM050               JUNCTION      0.00     0.00     0  00:00           0           0       0.000 gal
  BLM051               JUNCTION      0.00     0.00     0  00:00           0           0       0.000 gal
  BLM052               JUNCTION      0.00     0.00     0  00:00           0           0       0.000 gal
  BLM053               JUNCTION      0.00     0.00     0  00:00           0           0       0.000 gal
  BLM054               JUNCTION      0.00     0.00     0  00:00           0           0       0.000 gal
  BLM055               JUNCTION      0.00     0.00     0  00:00           0           0       0.000 gal
  BLM056               JUNCTION      0.00     0.00     0  00:00           0           0       0.000 gal
  ETO002               JUNCTION      0.00     0.00     0  00:00           0           0       0.000 gal
  ETO003               JUNCTION      0.00     0.00     0  00:00           0           0       0.000 gal
  ETO004               JUNCTION      0.00     0.00     0  00:00           0           0       0.000 gal
  ETO005               JUNCTION      0.00     0.00     0  00:00           0           0       0.000 gal
  ETO006               JUNCTION      0.00     0.00     0  00:00           0           0       0.000 gal
  ETO007               JUNCTION      0.00     0.00     0  00:00           0           0       0.000 gal
  ETO008               JUNCTION      0.00     0.00     0  00:00           0           0       0.000 gal
  ETO009               JUNCTION      0.00     0.00     0  00:00           0           0       0.000 gal
  ETO010               JUNCTION      0.00     0.00     0  00:00           0           0       0.000 gal
  ETO011               JUNCTION      0.00     0.00     0  00:00           0           0       0.000 gal
  ETO012               JUNCTION      0.00     0.00     0  00:00           0           0       0.000 gal
  ETO013               JUNCTION      0.00     0.00     0  00:00           0           0       0.000 gal
  ETO014               JUNCTION      0.00     0.00     0  00:00           0           0       0.000 gal
  ETO015               JUNCTION      0.00     0.00     0  00:00           0           0       0.000 gal
  ETO016               JUNCTION      0.00     0.00     0  00:00           0           0       0.000 gal
  ETO017               JUNCTION      0.00     0.00     0  00:00           0           0       0.000 gal
  ETO018               JUNCTION      0.00     0.00     0  00:00           0           0       0.000 gal
  ETO019               JUNCTION      0.00     0.00     0  00:00           0           0       0.000 gal
  ETO020               JUNCTION      0.00     0.00     0  00:00           0           0       0.000 gal
  ETO021               JUNCTION      0.00     0.00     0  00:00           0           0       0.000 gal
  ETO022               JUNCTION      0.00     0.00     0  00:00           0           0       0.000 gal
  ETO023               JUNCTION      0.00     0.00     0  00:00           0           0       0.000 gal
  ETO024               JUNCTION      0.00     0.00     0  00:00           0           0       0.000 gal
  ETO025               JUNCTION      0.00     0.00     0  00:00           0           0       0.000 gal
  ETO026               JUNCTION      0.00     0.00     0  00:00           0           0       0.000 gal
  ETO027               JUNCTION      0.00     0.00     0  00:00           0           0       0.000 gal
  ETO028               JUNCTION      0.00     0.00     0  00:00           0           0       0.000 gal
  ETO029               JUNCTION      0.00     0.00     0  00:00           0           0       0.000 gal
  ETO030               JUNCTION      0.00     0.00     0  00:00           0           0       0.000 gal
  ETO031               JUNCTION      0.00     0.00     0  00:00           0           0       0.000 gal
  ETO032               JUNCTION      0.00     0.00     0  00:00           0           0       0.000 gal
  ETO033               JUNCTION      0.00     0.00     0  00:00           0           0       0.000 gal
  ETO034               JUNCTION      0.00     0.00     0  00:00           0           0       0.000 gal
  ETO035               JUNCTION      0.00     0.00     0  00:00           0           0       0.000 gal
  ETO036               JUNCTION      0.00     0.00     0  00:00           0           0       0.000 gal
  ETO037               JUNCTION      0.00     0.00     0  00:00           0           0       0.000 gal
  ETO038               JUNCTION      0.00     0.00     0  00:00           0           0       0.000 gal
  ETO039               JUNCTION      0.00     0.00     0  00:00           0           0       0.000 gal
  ETO040               JUNCTION      0.00     0.00     0  00:00           0           0       0.000 gal
  ETO042               JUNCTION      0.00     0.00     0  00:00           0           0       0.000 gal
  ETO043               JUNCTION      0.00     0.00     0  00:00           0           0       0.000 gal
  ETO044               JUNCTION      0.00     0.00     0  00:00           0           0       0.000 gal
  ETO045               JUNCTION      0.00     0.00     0  00:00           0           0       0.000 gal
  ETO046               JUNCTION      0.00     0.00     0  00:00           0           0       0.000 gal
  ETO047               JUNCTION      0.00     0.00     0  00:00           0           0       0.000 gal
  ETO048               JUNCTION      0.00     0.00     0  00:00           0           0       0.000 gal
  ETO049               JUNCTION      0.00     0.00     0  00:00           0           0       0.000 gal
  ETO050               JUNCTION      0.00     0.00     0  00:00           0           0       0.000 gal
  ETO051               JUNCTION      0.00     0.00     0  00:00           0           0       0.000 gal
  ETO052               JUNCTION      0.00     0.00     0  00:00           0           0       0.000 gal
  ETO053               JUNCTION      0.00     0.00     0  00:00           0           0       0.000 gal
  ETO054               JUNCTION      0.00     0.00     0  00:00           0           0       0.000 gal
  ETO055               JUNCTION      0.00     0.00     0  00:00           0           0       0.000 gal
  ETO056               JUNCTION      0.00     0.00     0  00:00           0           0       0.000 gal
  ETO057               JUNCTION      0.00     0.00     0  00:00           0           0       0.000 gal
  ETO058               JUNCTION      0.00     0.00     0  00:00           0           0       0.000 gal
  ETO059               JUNCTION      0.00     0.00     0  00:00           0           0       0.000 gal
  ETO060               JUNCTION      0.00     0.00     0  00:00           0           0       0.000 gal
  ETO061               JUNCTION      0.00     0.00     0  00:00           0           0       0.000 gal
  ETO062               JUNCTION      0.00     0.00     0  00:00           0           0       0.000 gal
  ETO063               JUNCTION      0.00     0.00     0  00:00           0           0       0.000 gal
  ETO064               JUNCTION      0.00     0.00     0  00:00           0           0       0.000 gal
  ETO065               JUNCTION      0.00     0.00     0  00:00           0           0       0.000 gal
  ETO066               JUNCTION      0.00     0.00     0  00:00           0           0       0.000 gal
  ETO067               JUNCTION      0.00     0.00     0  00:00           0           0       0.000 gal
  ETO068               JUNCTION      0.00     0.00     0  00:00           0           0       0.000 gal
  ETO069               JUNCTION      0.00     0.00     0  00:00           0           0       0.000 gal
  ETO070               JUNCTION      0.00     0.00     0  00:00           0           0       0.000 gal
  ETO071               JUNCTION      0.00     0.00     0  00:00           0           0       0.000 gal
  ETO072               JUNCTION      0.00     0.00     0  00:00           0           0       0.000 gal
  GRZ001               JUNCTION      0.00     0.00     0  00:00           0           0       0.000 gal
  GRZ002               JUNCTION      0.00     0.00     0  00:00           0           0       0.000 gal
  GRZ003               JUNCTION      0.00     0.00     0  00:00           0           0       0.000 gal
  GRZ004               JUNCTION      0.00     0.00     0  00:00           0           0       0.000 gal
  GRZ005               JUNCTION      0.00     0.00     0  00:00           0           0       0.000 gal
  GRZ006               JUNCTION      0.00     0.00     0  00:00           0           0       0.000 gal
  GRZ007               JUNCTION      0.00     0.00     0  00:00           0           0       0.000 gal
  GRZ008               JUNCTION      0.00     0.00     0  00:00           0           0       0.000 gal
  GRZ009               JUNCTION      0.00     0.00     0  00:00           0           0       0.000 gal
  GRZ010               JUNCTION      0.00     0.00     0  00:00           0           0       0.000 gal
  GRZ011               JUNCTION      0.00     0.00     0  00:00           0           0       0.000 gal
  GRZ012               JUNCTION      0.00     0.00     0  00:00           0           0       0.000 gal
  GRZ013               JUNCTION      0.00     0.00     0  00:00           0           0       0.000 gal
  NIX002               JUNCTION      0.00     0.00     0  00:00           0           0       0.000 gal
  NIX003               JUNCTION      0.00     0.00     0  00:00           0           0       0.000 gal
  NIX004               JUNCTION      0.00     0.00     0  00:00           0           0       0.000 gal
  NIX005               JUNCTION      0.00     0.00     0  00:00           0           0       0.000 gal
  NIX006               JUNCTION      0.00     0.00     0  00:00           0           0       0.000 gal
  NIX007               JUNCTION      0.00     0.00     0  00:00           0           0       0.000 gal
  NIX008               JUNCTION      0.00     0.00     0  00:00           0           0       0.000 gal
  NIX009               JUNCTION      0.00     0.00     0  00:00           0           0       0.000 gal
  NIX010               JUNCTION      0.00     0.00     0  00:00           0           0       0.000 gal
  NIX011               JUNCTION      0.00     0.00     0  00:00           0           0       0.000 gal
  NIX012               JUNCTION      0.00     0.00     0  00:00           0           0       0.000 gal
  NIX013               JUNCTION      0.00     0.00     0  00:00           0           0       0.000 gal
  NIX014               JUNCTION      0.00     0.00     0  00:00           0           0       0.000 gal
  NIX015               JUNCTION      0.00     0.00     0  00:00           0           0       0.000 gal
  NIX016               JUNCTION      0.00     0.00     0  00:00           0           0       0.000 gal
  NIX017               JUNCTION      0.00     0.00     0  00:00           0           0       0.000 gal
  NIX018               JUNCTION      0.00     0.00     0  00:00           0           0       0.000 gal
  NIX019               JUNCTION      0.00     0.00     0  00:00           0           0       0.000 gal
  NIX020               JUNCTION      0.00     0.00     0  00:00           0           0       0.000 gal
  NIX021               JUNCTION      0.00     0.00     0  00:00           0           0       0.000 gal
  NIX022               JUNCTION      0.00     0.00     0  00:00           0           0       0.000 gal
  NIX023               JUNCTION      0.00     0.00     0  00:00           0           0       0.000 gal
  NIX024               JUNCTION      0.00     0.00     0  00:00           0           0       0.000 gal
  NIX025               JUNCTION      0.00     0.00     0  00:00           0           0       0.000 gal
  NIX026               JUNCTION      0.00     0.00     0  00:00           0           0       0.000 gal
  NIX027               JUNCTION      0.00     0.00     0  00:00           0           0       0.000 gal
  NIX028               JUNCTION      0.00     0.00     0  00:00           0           0       0.000 gal
  NIX029               JUNCTION      0.00     0.00     0  00:00           0           0       0.000 gal
  NIX030               JUNCTION      0.00     0.00     0  00:00           0           0       0.000 gal
  NIX031               JUNCTION      0.00     0.00     0  00:00           0           0       0.000 gal
  NIX032               JUNCTION      0.00     0.00     0  00:00           0           0       0.000 gal
  NIX033               JUNCTION      0.00     0.00     0  00:00           0           0       0.000 gal
  NIX034               JUNCTION      0.00     0.00     0  00:00           0           0       0.000 gal
  NIX035               JUNCTION      0.00     0.00     0  00:00           0           0       0.000 gal
  NIX036               JUNCTION      0.00     0.00     0  00:00           0           0       0.000 gal
  NIX037               JUNCTION      0.00     0.00     0  00:00           0           0       0.000 gal
  NIX038               JUNCTION      0.00     0.00     0  00:00           0           0       0.000 gal
  NIX039               JUNCTION      0.00     0.00     0  00:00           0           0       0.000 gal
  NIX040               JUNCTION      0.00     0.00     0  00:00           0           0       0.000 gal
  NIX041               JUNCTION      0.00     0.00     0  00:00           0           0       0.000 gal
  NIX042               JUNCTION      0.00     0.00     0  00:00           0           0       0.000 gal
  NIX043               JUNCTION      0.00     0.00     0  00:00           0           0       0.000 gal
  NIX044               JUNCTION      0.00     0.00     0  00:00           0           0       0.000 gal
  NIX045               JUNCTION      0.00     0.00     0  00:00           0           0       0.000 gal
  NIX046               JUNCTION      0.00     0.00     0  00:00           0           0       0.000 gal
  NIX047               JUNCTION      0.00     0.00     0  00:00           0           0       0.000 gal
  NIX048               JUNCTION      0.00     0.00     0  00:00           0           0       0.000 gal
  NIX049               JUNCTION      0.00     0.00     0  00:00           0           0       0.000 gal
  NIX050               JUNCTION      0.00     0.00     0  00:00           0           0       0.000 gal
  NIX051               JUNCTION      0.00     0.00     0  00:00           0           0       0.000 gal
  NIX052               JUNCTION      0.00     0.00     0  00:00           0           0       0.000 gal
  NIX053               JUNCTION      0.00     0.00     0  00:00           0           0       0.000 gal
  NIX054               JUNCTION      0.00     0.00     0  00:00           0           0       0.000 gal
  NIX055               JUNCTION      0.00     0.00     0  00:00           0           0       0.000 gal
  NIX056               JUNCTION      0.00     0.00     0  00:00           0           0       0.000 gal
  TAF001               JUNCTION      0.00     0.00     0  00:00           0           0       0.000 gal
  TAF002               JUNCTION      0.00     0.00     0  00:00           0           0       0.000 gal
  TAF003               JUNCTION      0.00     0.00     0  00:00           0           0       0.000 gal
  TAF004               JUNCTION      0.00     0.00     0  00:00           0           0       0.000 gal
  TAF005               JUNCTION      0.00     0.00     0  00:00           0           0       0.000 gal
  TAF006               JUNCTION      0.00     0.00     0  00:00           0           0       0.000 gal
  TAF007               JUNCTION      0.00     0.00     0  00:00           0           0       0.000 gal
  TAF008               JUNCTION      0.00     0.00     0  00:00           0           0       0.000 gal
  TAF009               JUNCTION      0.00     0.00     0  00:00           0           0       0.000 gal
  TAF010               JUNCTION      0.00     0.00     0  00:00           0           0       0.000 gal
  TAF011               JUNCTION      0.00     0.00     0  00:00           0           0       0.000 gal
  TAF012               JUNCTION      0.00     0.00     0  00:00           0           0       0.000 gal
  TAF013               JUNCTION      0.00     0.00     0  00:00           0           0       0.000 gal
  TAF014               JUNCTION      0.00     0.00     0  00:00           0           0       0.000 gal
  TAF015               JUNCTION      0.00     0.00     0  00:00           0           0       0.000 gal
  TAF016               JUNCTION      0.00     0.00     0  00:00           0           0       0.000 gal
  TAF017               JUNCTION      0.00     0.00     0  00:00           0           0       0.000 gal
  TAF018               JUNCTION      0.00     0.00     0  00:00           0           0       0.000 gal
  TAF019               JUNCTION      0.00     0.00     0  00:00           0           0       0.000 gal
  TAF020               JUNCTION      0.00     0.00     0  00:00           0           0       0.000 gal
[...]
  pTHO084                 1.00   -nan(ind)  -nan(ind)  -nan(ind)  -nan(ind)  -nan(ind)  -nan(ind)  -nan(ind)  -nan(ind)  -nan(ind)
  pTHO074                 1.00   -nan(ind)  -nan(ind)  -nan(ind)  -nan(ind)  -nan(ind)  -nan(ind)  -nan(ind)  -nan(ind)  -nan(ind)
  pTHO170                 1.00   -nan(ind)  -nan(ind)  -nan(ind)  -nan(ind)  -nan(ind)  -nan(ind)  -nan(ind)  -nan(ind)  -nan(ind)
  pTAF051                 1.00   -nan(ind)  -nan(ind)  -nan(ind)  -nan(ind)  -nan(ind)  -nan(ind)  -nan(ind)  -nan(ind)  -nan(ind)
  pNIX041                 1.00   -nan(ind)  -nan(ind)  -nan(ind)  -nan(ind)  -nan(ind)  -nan(ind)  -nan(ind)  -nan(ind)  -nan(ind)
  pTHO178                 1.00   -nan(ind)  -nan(ind)  -nan(ind)  -nan(ind)  -nan(ind)  -nan(ind)  -nan(ind)  -nan(ind)  -nan(ind)
  pGRZ009                 1.00   -nan(ind)  -nan(ind)  -nan(ind)  -nan(ind)  -nan(ind)  -nan(ind)  -nan(ind)  -nan(ind)  -nan(ind)
  pTHO070                 1.00   -nan(ind)  -nan(ind)  -nan(ind)  -nan(ind)  -nan(ind)  -nan(ind)  -nan(ind)  -nan(ind)  -nan(ind)
  pTHO065                 1.00   -nan(ind)  -nan(ind)  -nan(ind)  -nan(ind)  -nan(ind)  -nan(ind)  -nan(ind)  -nan(ind)  -nan(ind)
  pETO023                 1.00   -nan(ind)  -nan(ind)  -nan(ind)  -nan(ind)  -nan(ind)  -nan(ind)  -nan(ind)  -nan(ind)  -nan(ind)
  pTAF041                 1.00   -nan(ind)  -nan(ind)  -nan(ind)  -nan(ind)  -nan(ind)  -nan(ind)  -nan(ind)  -nan(ind)  -nan(ind)
  pTAF005                 1.00   -nan(ind)  -nan(ind)  -nan(ind)  -nan(ind)  -nan(ind)  -nan(ind)  -nan(ind)  -nan(ind)  -nan(ind)
  pETO015                 1.00   -nan(ind)  -nan(ind)  -nan(ind)  -nan(ind)  -nan(ind)  -nan(ind)  -nan(ind)  -nan(ind)  -nan(ind)
  pETO072                 1.00   -nan(ind)  -nan(ind)  -nan(ind)  -nan(ind)  -nan(ind)  -nan(ind)  -nan(ind)  -nan(ind)  -nan(ind)
  pETO032                 1.00   -nan(ind)  -nan(ind)  -nan(ind)  -nan(ind)  -nan(ind)  -nan(ind)  -nan(ind)  -nan(ind)  -nan(ind)
  pTHO059                 1.00   -nan(ind)  -nan(ind)  -nan(ind)  -nan(ind)  -nan(ind)  -nan(ind)  -nan(ind)  -nan(ind)  -nan(ind)
  pTAF091                 1.00   -nan(ind)  -nan(ind)  -nan(ind)  -nan(ind)  -nan(ind)  -nan(ind)  -nan(ind)  -nan(ind)  -nan(ind)
  pETO052                 1.00   -nan(ind)  -nan(ind)  -nan(ind)  -nan(ind)  -nan(ind)  -nan(ind)  -nan(ind)  -nan(ind)  -nan(ind)
  pETO029                 1.00   -nan(ind)  -nan(ind)  -nan(ind)  -nan(ind)  -nan(ind)  -nan(ind)  -nan(ind)  -nan(ind)  -nan(ind)
  pETO036                 1.00   -nan(ind)  -nan(ind)  -nan(ind)  -nan(ind)  -nan(ind)  -nan(ind)  -nan(ind)  -nan(ind)  -nan(ind)
  pTHO015                 1.00   -nan(ind)  -nan(ind)  -nan(ind)  -nan(ind)  -nan(ind)  -nan(ind)  -nan(ind)  -nan(ind)  -nan(ind)
  pETO054                 1.00   -nan(ind)  -nan(ind)  -nan(ind)  -nan(ind)  -nan(ind)  -nan(ind)  -nan(ind)  -nan(ind)  -nan(ind)
  pTAF008                 1.00   -nan(ind)  -nan(ind)  -nan(ind)  -nan(ind)  -nan(ind)  -nan(ind)  -nan(ind)  -nan(ind)  -nan(ind)
  pTAF144                 1.00   -nan(ind)  -nan(ind)  -nan(ind)  -nan(ind)  -nan(ind)  -nan(ind)  -nan(ind)  -nan(ind)  -nan(ind)
  pETO043                 1.00   -nan(ind)  -nan(ind)  -nan(ind)  -nan(ind)  -nan(ind)  -nan(ind)  -nan(ind)  -nan(ind)  -nan(ind)
  pNIX051                 1.00   -nan(ind)  -nan(ind)  -nan(ind)  -nan(ind)  -nan(ind)  -nan(ind)  -nan(ind)  -nan(ind)  -nan(ind)
  pTAF035                 1.00   -nan(ind)  -nan(ind)  -nan(ind)  -nan(ind)  -nan(ind)  -nan(ind)  -nan(ind)  -nan(ind)  -nan(ind)
  pTHO086                 1.00   -nan(ind)  -nan(ind)  -nan(ind)  -nan(ind)  -nan(ind)  -nan(ind)  -nan(ind)  -nan(ind)  -nan(ind)
  pTAF115                 1.00   -nan(ind)  -nan(ind)  -nan(ind)  -nan(ind)  -nan(ind)  -nan(ind)  -nan(ind)  -nan(ind)  -nan(ind)
  pETO016                 1.00   -nan(ind)  -nan(ind)  -nan(ind)  -nan(ind)  -nan(ind)  -nan(ind)  -nan(ind)  -nan(ind)  -nan(ind)
  pTHO077                 1.00   -nan(ind)  -nan(ind)  -nan(ind)  -nan(ind)  -nan(ind)  -nan(ind)  -nan(ind)  -nan(ind)  -nan(ind)
  pTHO098                 1.00   -nan(ind)  -nan(ind)  -nan(ind)  -nan(ind)  -nan(ind)  -nan(ind)  -nan(ind)  -nan(ind)  -nan(ind)
  pETO005                 1.00   -nan(ind)  -nan(ind)  -nan(ind)  -nan(ind)  -nan(ind)  -nan(ind)  -nan(ind)  -nan(ind)  -nan(ind)
  pTAF106                 1.00   -nan(ind)  -nan(ind)  -nan(ind)  -nan(ind)  -nan(ind)  -nan(ind)  -nan(ind)  -nan(ind)  -nan(ind)
  pTAF033                 1.00   -nan(ind)  -nan(ind)  -nan(ind)  -nan(ind)  -nan(ind)  -nan(ind)  -nan(ind)  -nan(ind)  -nan(ind)
  pETO044                 1.00   -nan(ind)  -nan(ind)  -nan(ind)  -nan(ind)  -nan(ind)  -nan(ind)  -nan(ind)  -nan(ind)  -nan(ind)
  pETO011                 1.00   -nan(ind)  -nan(ind)  -nan(ind)  -nan(ind)  -nan(ind)  -nan(ind)  -nan(ind)  -nan(ind)  -nan(ind)
  pETO062                 1.00   -nan(ind)  -nan(ind)  -nan(ind)  -nan(ind)  -nan(ind)  -nan(ind)  -nan(ind)  -nan(ind)  -nan(ind)
  pETO013                 1.00   -nan(ind)  -nan(ind)  -nan(ind)  -nan(ind)  -nan(ind)  -nan(ind)  -nan(ind)  -nan(ind)  -nan(ind)
  pETO014                 1.00   -nan(ind)  -nan(ind)  -nan(ind)  -nan(ind)  -nan(ind)  -nan(ind)  -nan(ind)  -nan(ind)  -nan(ind)
  pETO049                 1.00   -nan(ind)  -nan(ind)  -nan(ind)  -nan(ind)  -nan(ind)  -nan(ind)  -nan(ind)  -nan(ind)  -nan(ind)
  pTAF022                 1.00   -nan(ind)  -nan(ind)  -nan(ind)  -nan(ind)  -nan(ind)  -nan(ind)  -nan(ind)  -nan(ind)  -nan(ind)
  pETO008                 1.00   -nan(ind)  -nan(ind)  -nan(ind)  -nan(ind)  -nan(ind)  -nan(ind)  -nan(ind)  -nan(ind)  -nan(ind)
  pTHO082                 1.00   -nan(ind)  -nan(ind)  -nan(ind)  -nan(ind)  -nan(ind)  -nan(ind)  -nan(ind)  -nan(ind)  -nan(ind)
  pBLM008                 1.00   -nan(ind)  -nan(ind)  -nan(ind)  -nan(ind)  -nan(ind)  -nan(ind)  -nan(ind)  -nan(ind)  -nan(ind)
  pTHO192                 1.00   -nan(ind)  -nan(ind)  -nan(ind)  -nan(ind)  -nan(ind)  -nan(ind)  -nan(ind)  -nan(ind)  -nan(ind)
  pTAF099                 1.00   -nan(ind)  -nan(ind)  -nan(ind)  -nan(ind)  -nan(ind)  -nan(ind)  -nan(ind)  -nan(ind)  -nan(ind)
  pTAF027                 1.00   -nan(ind)  -nan(ind)  -nan(ind)  -nan(ind)  -nan(ind)  -nan(ind)  -nan(ind)  -nan(ind)  -nan(ind)
  pETO061                 1.00   -nan(ind)  -nan(ind)  -nan(ind)  -nan(ind)  -nan(ind)  -nan(ind)  -nan(ind)  -nan(ind)  -nan(ind)
  pTAF138                 1.00   -nan(ind)  -nan(ind)  -nan(ind)  -nan(ind)  -nan(ind)  -nan(ind)  -nan(ind)  -nan(ind)  -nan(ind)
  pETO057                 1.00   -nan(ind)  -nan(ind)  -nan(ind)  -nan(ind)  -nan(ind)  -nan(ind)  -nan(ind)  -nan(ind)  -nan(ind)
  pETO019                 1.00   -nan(ind)  -nan(ind)  -nan(ind)  -nan(ind)  -nan(ind)  -nan(ind)  -nan(ind)  -nan(ind)  -nan(ind)
  pTAF087                 1.00   -nan(ind)  -nan(ind)  -nan(ind)  -nan(ind)  -nan(ind)  -nan(ind)  -nan(ind)  -nan(ind)  -nan(ind)
  pTAF157                 1.00   -nan(ind)  -nan(ind)  -nan(ind)  -nan(ind)  -nan(ind)  -nan(ind)  -nan(ind)  -nan(ind)  -nan(ind)
  pTAF028                 1.00   -nan(ind)  -nan(ind)  -nan(ind)  -nan(ind)  -nan(ind)  -nan(ind)  -nan(ind)  -nan(ind)  -nan(ind)
  pETO056                 1.00   -nan(ind)  -nan(ind)  -nan(ind)  -nan(ind)  -nan(ind)  -nan(ind)  -nan(ind)  -nan(ind)  -nan(ind)
  pETO055                 1.00   -nan(ind)  -nan(ind)  -nan(ind)  -nan(ind)  -nan(ind)  -nan(ind)  -nan(ind)  -nan(ind)  -nan(ind)
  pTAF010                 1.00   -nan(ind)  -nan(ind)  -nan(ind)  -nan(ind)  -nan(ind)  -nan(ind)  -nan(ind)  -nan(ind)  -nan(ind)
  pTHO099                 1.00   -nan(ind)  -nan(ind)  -nan(ind)  -nan(ind)  -nan(ind)  -nan(ind)  -nan(ind)  -nan(ind)  -nan(ind)
  pTHO043                 1.00   -nan(ind)  -nan(ind)  -nan(ind)  -nan(ind)  -nan(ind)  -nan(ind)  -nan(ind)  -nan(ind)  -nan(ind)
  pTHO076                 1.00   -nan(ind)  -nan(ind)  -nan(ind)  -nan(ind)  -nan(ind)  -nan(ind)  -nan(ind)  -nan(ind)  -nan(ind)
  pTHO050                 1.00   -nan(ind)  -nan(ind)  -nan(ind)  -nan(ind)  -nan(ind)  -nan(ind)  -nan(ind)  -nan(ind)  -nan(ind)
  pTAF018                 1.00   -nan(ind)  -nan(ind)  -nan(ind)  -nan(ind)  -nan(ind)  -nan(ind)  -nan(ind)  -nan(ind)  -nan(ind)
  pETO010                 1.00   -nan(ind)  -nan(ind)  -nan(ind)  -nan(ind)  -nan(ind)  -nan(ind)  -nan(ind)  -nan(ind)  -nan(ind)
  pTHO111                 1.00   -nan(ind)  -nan(ind)  -nan(ind)  -nan(ind)  -nan(ind)  -nan(ind)  -nan(ind)  -nan(ind)  -nan(ind)
  pTHO161                 1.00   -nan(ind)  -nan(ind)  -nan(ind)  -nan(ind)  -nan(ind)  -nan(ind)  -nan(ind)  -nan(ind)  -nan(ind)
  pETO024                 1.00   -nan(ind)  -nan(ind)  -nan(ind)  -nan(ind)  -nan(ind)  -nan(ind)  -nan(ind)  -nan(ind)  -nan(ind)
  pTAF128                 1.00   -nan(ind)  -nan(ind)  -nan(ind)  -nan(ind)  -nan(ind)  -nan(ind)  -nan(ind)  -nan(ind)  -nan(ind)
  pETO060                 1.00   -nan(ind)  -nan(ind)  -nan(ind)  -nan(ind)  -nan(ind)  -nan(ind)  -nan(ind)  -nan(ind)  -nan(ind)
  pTHO182                 1.00   -nan(ind)  -nan(ind)  -nan(ind)  -nan(ind)  -nan(ind)  -nan(ind)  -nan(ind)  -nan(ind)  -nan(ind)
  pETO012                 1.00   -nan(ind)  -nan(ind)  -nan(ind)  -nan(ind)  -nan(ind)  -nan(ind)  -nan(ind)  -nan(ind)  -nan(ind)
  pTAF126                 1.00   -nan(ind)  -nan(ind)  -nan(ind)  -nan(ind)  -nan(ind)  -nan(ind)  -nan(ind)  -nan(ind)  -nan(ind)
  pTHO096                 1.37   -nan(ind)  -nan(ind)  -nan(ind)  -nan(ind)  -nan(ind)  -nan(ind)  -nan(ind)  -nan(ind)  -nan(ind)
  pWRF001                 4.37   -nan(ind)  -nan(ind)  -nan(ind)  -nan(ind)  -nan(ind)  -nan(ind)  -nan(ind)  -nan(ind)  -nan(ind)
  pWRF002                 3.57   -nan(ind)  -nan(ind)  -nan(ind)  -nan(ind)  -nan(ind)  -nan(ind)  -nan(ind)  -nan(ind)  -nan(ind)
  pETO047                 1.00   -nan(ind)  -nan(ind)  -nan(ind)  -nan(ind)  -nan(ind)  -nan(ind)  -nan(ind)  -nan(ind)  -nan(ind)
  CO-5ic                  1.00   -nan(ind)  -nan(ind)  -nan(ind)  -nan(ind)  -nan(ind)  -nan(ind)  -nan(ind)  -nan(ind)  -nan(ind)
  CO-6ic                  1.00   -nan(ind)  -nan(ind)  -nan(ind)  -nan(ind)  -nan(ind)  -nan(ind)  -nan(ind)  -nan(ind)  -nan(ind)
  CO-7ic                  1.00   -nan(ind)  -nan(ind)  -nan(ind)  -nan(ind)  -nan(ind)  -nan(ind)  -nan(ind)  -nan(ind)  -nan(ind)
  CO-8ic                  1.00   -nan(ind)  -nan(ind)  -nan(ind)  -nan(ind)  -nan(ind)  -nan(ind)  -nan(ind)  -nan(ind)  -nan(ind)
  CO-9ic                  1.00   -nan(ind)  -nan(ind)  -nan(ind)  -nan(ind)  -nan(ind)  -nan(ind)  -nan(ind)  -nan(ind)  -nan(ind)
  CO-10ic                 1.23   -nan(ind)  -nan(ind)  -nan(ind)  -nan(ind)  -nan(ind)  -nan(ind)  -nan(ind)  -nan(ind)  -nan(ind)
  pTHO038                 1.00   -nan(ind)  -nan(ind)  -nan(ind)  -nan(ind)  -nan(ind)  -nan(ind)  -nan(ind)  -nan(ind)  -nan(ind)
  pTHO193                 1.00   -nan(ind)  -nan(ind)  -nan(ind)  -nan(ind)  -nan(ind)  -nan(ind)  -nan(ind)  -nan(ind)  -nan(ind)
  pTHO031                 1.00   -nan(ind)  -nan(ind)  -nan(ind)  -nan(ind)  -nan(ind)  -nan(ind)  -nan(ind)  -nan(ind)  -nan(ind)
  CO-15                   1.00   -nan(ind)  -nan(ind)  -nan(ind)  -nan(ind)  -nan(ind)  -nan(ind)  -nan(ind)  -nan(ind)  -nan(ind)
  CO-16                   1.00   -nan(ind)  -nan(ind)  -nan(ind)  -nan(ind)  -nan(ind)  -nan(ind)  -nan(ind)  -nan(ind)  -nan(ind)
  Thomspon_Creek_FM       1.00   -nan(ind)  -nan(ind)  -nan(ind)  -nan(ind)  -nan(ind)  -nan(ind)  -nan(ind)  -nan(ind)  -nan(ind)
  sForceMain_(Polyline)-566    1.00   -nan(ind)  -nan(ind)  -nan(ind)  -nan(ind)  -nan(ind)  -nan(ind)  -nan(ind)  -nan(ind)  -nan(ind)
  sForceMain_(Polyline)-565    1.00   -nan(ind)  -nan(ind)  -nan(ind)  -nan(ind)  -nan(ind)  -nan(ind)  -nan(ind)  -nan(ind)  -nan(ind)
  sForceMain_(Polyline)-568    1.00   -nan(ind)  -nan(ind)  -nan(ind)  -nan(ind)  -nan(ind)  -nan(ind)  -nan(ind)  -nan(ind)  -nan(ind)
  sForceMain_(Polyline)-572    1.00   -nan(ind)  -nan(ind)  -nan(ind)  -nan(ind)  -nan(ind)  -nan(ind)  -nan(ind)  -nan(ind)  -nan(ind)
  Oak_Monte_FM            1.00   -nan(ind)  -nan(ind)  -nan(ind)  -nan(ind)  -nan(ind)  -nan(ind)  -nan(ind)  -nan(ind)  -nan(ind)
  Dawson_Pointe_FM        1.00   -nan(ind)  -nan(ind)  -nan(ind)  -nan(ind)  -nan(ind)  -nan(ind)  -nan(ind)  -nan(ind)  -nan(ind)
  P-1                     1.00   -nan(ind)  -nan(ind)  -nan(ind)  -nan(ind)  -nan(ind)  -nan(ind)  -nan(ind)  -nan(ind)  -nan(ind)
  P-9                     6.04   -nan(ind)  -nan(ind)  -nan(ind)  -nan(ind)  -nan(ind)  -nan(ind)  -nan(ind)  -nan(ind)  -nan(ind)
  P-10                    6.04   -nan(ind)  -nan(ind)  -nan(ind)  -nan(ind)  -nan(ind)  -nan(ind)  -nan(ind)  -nan(ind)  -nan(ind)
  FM-15                  28.44   -nan(ind)  -nan(ind)  -nan(ind)  -nan(ind)  -nan(ind)  -nan(ind)  -nan(ind)  -nan(ind)  -nan(ind)
  FM-18                  28.44   -nan(ind)  -nan(ind)  -nan(ind)  -nan(ind)  -nan(ind)  -nan(ind)  -nan(ind)  -nan(ind)  -nan(ind)
  FM-20                  35.42   -nan(ind)  -nan(ind)  -nan(ind)  -nan(ind)  -nan(ind)  -nan(ind)  -nan(ind)  -nan(ind)  -nan(ind)
  FM-22                  35.42   -nan(ind)  -nan(ind)  -nan(ind)  -nan(ind)  -nan(ind)  -nan(ind)  -nan(ind)  -nan(ind)  -nan(ind)
  FM-23                   1.00   -nan(ind)  -nan(ind)  -nan(ind)  -nan(ind)  -nan(ind)  -nan(ind)  -nan(ind)  -nan(ind)  -nan(ind)
  FM-26                  26.59   -nan(ind)  -nan(ind)  -nan(ind)  -nan(ind)  -nan(ind)  -nan(ind)  -nan(ind)  -nan(ind)  -nan(ind)
  FM-29                  26.59   -nan(ind)  -nan(ind)  -nan(ind)  -nan(ind)  -nan(ind)  -nan(ind)  -nan(ind)  -nan(ind)  -nan(ind)
  FM-32                  12.99   -nan(ind)  -nan(ind)  -nan(ind)  -nan(ind)  -nan(ind)  -nan(ind)  -nan(ind)  -nan(ind)  -nan(ind)
  FM-35                  10.99   -nan(ind)  -nan(ind)  -nan(ind)  -nan(ind)  -nan(ind)  -nan(ind)  -nan(ind)  -nan(ind)  -nan(ind)
  FM-38                  18.12   -nan(ind)  -nan(ind)  -nan(ind)  -nan(ind)  -nan(ind)  -nan(ind)  -nan(ind)  -nan(ind)  -nan(ind)
  FM-41                  18.12   -nan(ind)  -nan(ind)  -nan(ind)  -nan(ind)  -nan(ind)  -nan(ind)  -nan(ind)  -nan(ind)  -nan(ind)
  FM-44                   6.91   -nan(ind)  -nan(ind)  -nan(ind)  -nan(ind)  -nan(ind)  -nan(ind)  -nan(ind)  -nan(ind)  -nan(ind)
  FM-47                   7.13   -nan(ind)  -nan(ind)  -nan(ind)  -nan(ind)  -nan(ind)  -nan(ind)  -nan(ind)  -nan(ind)  -nan(ind)
  FM-50                  14.44   -nan(ind)  -nan(ind)  -nan(ind)  -nan(ind)  -nan(ind)  -nan(ind)  -nan(ind)  -nan(ind)  -nan(ind)
  FM-53                  14.44   -nan(ind)  -nan(ind)  -nan(ind)  -nan(ind)  -nan(ind)  -nan(ind)  -nan(ind)  -nan(ind)  -nan(ind)
  FM-56                  13.86   -nan(ind)  -nan(ind)  -nan(ind)  -nan(ind)  -nan(ind)  -nan(ind)  -nan(ind)  -nan(ind)  -nan(ind)
  FM-59                  13.86   -nan(ind)  -nan(ind)  -nan(ind)  -nan(ind)  -nan(ind)  -nan(ind)  -nan(ind)  -nan(ind)  -nan(ind)
  FM-62                  10.56   -nan(ind)  -nan(ind)  -nan(ind)  -nan(ind)  -nan(ind)  -nan(ind)  -nan(ind)  -nan(ind)  -nan(ind)
  FM-65                   8.31   -nan(ind)  -nan(ind)  -nan(ind)  -nan(ind)  -nan(ind)  -nan(ind)  -nan(ind)  -nan(ind)  -nan(ind)
  FM-68                   4.58   -nan(ind)  -nan(ind)  -nan(ind)  -nan(ind)  -nan(ind)  -nan(ind)  -nan(ind)  -nan(ind)  -nan(ind)
  FM-71                   4.58   -nan(ind)  -nan(ind)  -nan(ind)  -nan(ind)  -nan(ind)  -nan(ind)  -nan(ind)  -nan(ind)  -nan(ind)
  FM-80                   6.88   -nan(ind)  -nan(ind)  -nan(ind)  -nan(ind)  -nan(ind)  -nan(ind)  -nan(ind)  -nan(ind)  -nan(ind)
  FM-81                   6.88   -nan(ind)  -nan(ind)  -nan(ind)  -nan(ind)  -nan(ind)  -nan(ind)  -nan(ind)  -nan(ind)  -nan(ind)
  FM-84                   1.00   -nan(ind)  -nan(ind)  -nan(ind)  -nan(ind)  -nan(ind)  -nan(ind)  -nan(ind)  -nan(ind)  -nan(ind)
  FM-85                   1.00   -nan(ind)  -nan(ind)  -nan(ind)  -nan(ind)  -nan(ind)  -nan(ind)  -nan(ind)  -nan(ind)  -nan(ind)
  FM-86                   1.00   -nan(ind)  -nan(ind)  -nan(ind)  -nan(ind)  -nan(ind)  -nan(ind)  -nan(ind)  -nan(ind)  -nan(ind)
  FM-87                   1.00   -nan(ind)  -nan(ind)  -nan(ind)  -nan(ind)  -nan(ind)  -nan(ind)  -nan(ind)  -nan(ind)  -nan(ind)
  FM-90                   1.00   -nan(ind)  -nan(ind)  -nan(ind)  -nan(ind)  -nan(ind)  -nan(ind)  -nan(ind)  -nan(ind)  -nan(ind)
  FM-91                   1.00   -nan(ind)  -nan(ind)  -nan(ind)  -nan(ind)  -nan(ind)  -nan(ind)  -nan(ind)  -nan(ind)  -nan(ind)
  
  
  *************************
  Conduit Surcharge Summary
  *************************
  
  No conduits were surcharged.
  
  
  ***************
  Pumping Summary
  ***************
  
  ---------------------------------------------------------------------------------------------------------
                                                  Min       Avg       Max     Total     Power    % Time Off
                        Percent   Number of      Flow      Flow      Flow    Volume     Usage    Pump Curve
  Pump                 Utilized   Start-Ups       CFS       CFS       CFS  10^6 gal     Kw-hr    Low   High
  ---------------------------------------------------------------------------------------------------------
  PMP-TC1              -nan(ind)           0      0.00      0.00      0.00     0.000      0.00    0.0    0.0
  PMP-TC2              -nan(ind)           0      0.00      0.00      0.00     0.000      0.00    0.0    0.0
  PMP-DP2              -nan(ind)           0      0.00      0.00      0.00     0.000      0.00    0.0    0.0
  PMP-DP1              -nan(ind)           0      0.00      0.00      0.00     0.000      0.00    0.0    0.0
  PMP-Oak1             -nan(ind)           0      0.00      0.00      0.00     0.000      0.00    0.0    0.0
  PMP-Oak2             -nan(ind)           0      0.00      0.00      0.00     0.000      0.00    0.0    0.0
  PMP-DF1              -nan(ind)           0      0.00      0.00      0.00     0.000      0.00    0.0    0.0
  PMP-DF2              -nan(ind)           0      0.00      0.00      0.00     0.000      0.00    0.0    0.0
  PMP-RV1              -nan(ind)           0      0.00      0.00      0.00     0.000      0.00    0.0    0.0
  PMP-RV2              -nan(ind)           0      0.00      0.00      0.00     0.000      0.00    0.0    0.0
  PMP-Ch1              -nan(ind)           0      0.00      0.00      0.00     0.000      0.00    0.0    0.0
  PMP-Ch2              -nan(ind)           0      0.00      0.00      0.00     0.000      0.00    0.0    0.0
  PMP-WW1              -nan(ind)           0      0.00      0.00      0.00     0.000      0.00    0.0    0.0
  PMP-WW2              -nan(ind)           0      0.00      0.00      0.00     0.000      0.00    0.0    0.0
  PMP-Kr1              -nan(ind)           0      0.00      0.00      0.00     0.000      0.00    0.0    0.0
  PMP-Kr2              -nan(ind)           0      0.00      0.00      0.00     0.000      0.00    0.0    0.0
  PMP-TT1              -nan(ind)           0      0.00      0.00      0.00     0.000      0.00    0.0    0.0
  PMP-TT2              -nan(ind)           0      0.00      0.00      0.00     0.000      0.00    0.0    0.0
  PMP-Mc1              -nan(ind)           0      0.00      0.00      0.00     0.000      0.00    0.0    0.0
  PMP-Mc2              -nan(ind)           0      0.00      0.00      0.00     0.000      0.00    0.0    0.0
  PMP-CC1              -nan(ind)           0      0.00      0.00      0.00     0.000      0.00    0.0    0.0
  PMP-CC2              -nan(ind)           0      0.00      0.00      0.00     0.000      0.00    0.0    0.0
  PMP-Ing1             -nan(ind)           0      0.00      0.00      0.00     0.000      0.00    0.0    0.0
  PMP-Ing2             -nan(ind)           0      0.00      0.00      0.00     0.000      0.00    0.0    0.0
  

  Analysis begun on:  Sat Nov 30 08:10:49 2019
  Analysis ended on:  Sat Nov 30 08:10:49 2019
  Total elapsed time: < 1 sec