
  EPA STORM WATER MANAGEMENT MODEL - VERSION 5.1 (Build 5.1.013)
  --------------------------------------------------------------

  WARNING 03: negative offset ignored for Link 552
  WARNING 03: negative offset ignored for Link L4876
  WARNING 03: negative offset ignored for Link L46981
  WARNING 03: negative offset ignored for Link L43352
  WARNING 04: minimum elevation drop used for Conduit 2126
  WARNING 03: negative offset ignored for Link L4920
  WARNING 03: negative offset ignored for Link L4920
  WARNING 03: negative offset ignored for Link L4490
  WARNING 03: negative offset ignored for Link L5043
  WARNING 03: negative offset ignored for Link L49401
  WARNING 03: negative offset ignored for Link L41621
  WARNING 03: negative offset ignored for Link L3982
  WARNING 03: negative offset ignored for Link L4996
  WARNING 03: negative offset ignored for Link L3931
  WARNING 03: negative offset ignored for Link L3930
  WARNING 03: negative offset ignored for Link L4887
  WARNING 03: negative offset ignored for Link 5184
  WARNING 03: negative offset ignored for Link 5189
  WARNING 03: negative offset ignored for Link L4921
  WARNING 04: minimum elevation drop used for Conduit L4921
  WARNING 03: negative offset ignored for Link L4919
  WARNING 03: negative offset ignored for Link L4007
  WARNING 04: minimum elevation drop used for Conduit 5886
  WARNING 04: minimum elevation drop used for Conduit L39872
  WARNING 03: negative offset ignored for Link L5126
  WARNING 03: negative offset ignored for Link L3981
  WARNING 03: negative offset ignored for Link L49932
  WARNING 03: negative offset ignored for Link L4983
  WARNING 04: minimum elevation drop used for Conduit L4983
  WARNING 03: negative offset ignored for Link L4035
  WARNING 03: negative offset ignored for Link L45841
  WARNING 03: negative offset ignored for Link L4297
  WARNING 03: negative offset ignored for Link L47072
  WARNING 03: negative offset ignored for Link L47072
  WARNING 03: negative offset ignored for Link L45423
  WARNING 08: elevation drop exceeds length for Conduit L39911
  WARNING 08: elevation drop exceeds length for Conduit L39962
  WARNING 03: negative offset ignored for Link L48212
  WARNING 04: minimum elevation drop used for Conduit L48212
  WARNING 03: negative offset ignored for Link L4800
  WARNING 03: negative offset ignored for Link L4799
  WARNING 04: minimum elevation drop used for Conduit 172
  WARNING 08: elevation drop exceeds length for Conduit 180
  WARNING 04: minimum elevation drop used for Conduit 181
  WARNING 03: negative offset ignored for Link L4196
  WARNING 03: negative offset ignored for Link L4636
  WARNING 04: minimum elevation drop used for Conduit L4636
  WARNING 03: negative offset ignored for Link L40421
  WARNING 03: negative offset ignored for Link L5015
  WARNING 03: negative offset ignored for Link L5014
  WARNING 03: negative offset ignored for Link L5014
  WARNING 03: negative offset ignored for Link L5013
  WARNING 04: minimum elevation drop used for Conduit L4275
  WARNING 03: negative offset ignored for Link L4009
  WARNING 08: elevation drop exceeds length for Conduit 410
  WARNING 03: negative offset ignored for Link L5089
  WARNING 03: negative offset ignored for Link 508
  WARNING 04: minimum elevation drop used for Conduit 446
  WARNING 04: minimum elevation drop used for Conduit 451
  WARNING 04: minimum elevation drop used for Conduit 470
  WARNING 04: minimum elevation drop used for Conduit 483
  WARNING 04: minimum elevation drop used for Conduit 490
  WARNING 04: minimum elevation drop used for Conduit 507
  WARNING 03: negative offset ignored for Link 533
  WARNING 08: elevation drop exceeds length for Conduit 539
  WARNING 04: minimum elevation drop used for Conduit 541
  WARNING 08: elevation drop exceeds length for Conduit 549
  WARNING 03: negative offset ignored for Link L4585
  WARNING 03: negative offset ignored for Link L4997
  WARNING 02: maximum depth increased for Node N_4566
  WARNING 02: maximum depth increased for Node N_4177
  WARNING 02: maximum depth increased for Node N_4909
  WARNING 02: maximum depth increased for Node N_4005
  WARNING 02: maximum depth increased for Node N_4723
  WARNING 02: maximum depth increased for Node N_4486
  WARNING 02: maximum depth increased for Node N_4802
  WARNING 02: maximum depth increased for Node N_5101
  WARNING 02: maximum depth increased for Node N_5087
  WARNING 02: maximum depth increased for Node N_5082
  WARNING 02: maximum depth increased for Node N_4781
  WARNING 02: maximum depth increased for Node N_5206
  WARNING 02: maximum depth increased for Node N_5204
  WARNING 02: maximum depth increased for Node N_4550
  WARNING 02: maximum depth increased for Node N_3939
  WARNING 02: maximum depth increased for Node N_3980
  WARNING 02: maximum depth increased for Node N_3936
  WARNING 02: maximum depth increased for Node N_3930
  WARNING 02: maximum depth increased for Node N_3927
  WARNING 02: maximum depth increased for Node N_3922
  WARNING 02: maximum depth increased for Node N_3921
  WARNING 02: maximum depth increased for Node 5147
  WARNING 02: maximum depth increased for Node N_4854
  WARNING 02: maximum depth increased for Node N_4002
  WARNING 02: maximum depth increased for Node N_4932
  WARNING 02: maximum depth increased for Node N_4795
  WARNING 02: maximum depth increased for Node N_5043
  WARNING 02: maximum depth increased for Node N_3941
  WARNING 02: maximum depth increased for Node N_4819
  WARNING 02: maximum depth increased for Node 6198
  WARNING 02: maximum depth increased for Node N_4809
  WARNING 02: maximum depth increased for Node N_5062
  WARNING 02: maximum depth increased for Node N_4807
  WARNING 02: maximum depth increased for Node N_4021
  WARNING 02: maximum depth increased for Node N_4039
  WARNING 02: maximum depth increased for Node N_4614
  WARNING 02: maximum depth increased for Node N_4260
  WARNING 02: maximum depth increased for Node N_4261
  WARNING 02: maximum depth increased for Node N_4262
  WARNING 02: maximum depth increased for Node N_4265
  WARNING 02: maximum depth increased for Node N_4266
  WARNING 02: maximum depth increased for Node N_5192
  WARNING 02: maximum depth increased for Node N_4202
  WARNING 02: maximum depth increased for Node N_4590
  WARNING 02: maximum depth increased for Node N_5218
  WARNING 02: maximum depth increased for Node N_5217
  WARNING 02: maximum depth increased for Node N_4585
  WARNING 02: maximum depth increased for Node N_4248
  WARNING 02: maximum depth increased for Node 55
  WARNING 02: maximum depth increased for Node 60
  WARNING 02: maximum depth increased for Node N_4640
  WARNING 02: maximum depth increased for Node N_4268
  WARNING 02: maximum depth increased for Node N_4270
  WARNING 02: maximum depth increased for Node N_4513
  WARNING 02: maximum depth increased for Node N_4623
  WARNING 02: maximum depth increased for Node N_4624
  WARNING 02: maximum depth increased for Node N_4234
  WARNING 02: maximum depth increased for Node N_4569
  WARNING 02: maximum depth increased for Node 609
  WARNING 02: maximum depth increased for Node 610
  WARNING 02: maximum depth increased for Node N_4461
  WARNING 02: maximum depth increased for Node N_4029
  WARNING 02: maximum depth increased for Node N_4028
  WARNING 02: maximum depth increased for Node N_4027
  WARNING 02: maximum depth increased for Node N_4026
  WARNING 02: maximum depth increased for Node N_4025
  WARNING 02: maximum depth increased for Node N_4024
  WARNING 02: maximum depth increased for Node N_4023
  WARNING 02: maximum depth increased for Node N_4022
  WARNING 02: maximum depth increased for Node N_5194
  WARNING 02: maximum depth increased for Node N_5193
  WARNING 02: maximum depth increased for Node N_5208
  WARNING 02: maximum depth increased for Node N_5153
  WARNING 02: maximum depth increased for Node N_5158
  WARNING 02: maximum depth increased for Node N_5214
  WARNING 02: maximum depth increased for Node 2
  
  *********************************************************
  NOTE: The summary statistics displayed in this report are
  based on results found at every computational time step,  
  not just on results from each reporting time step.
  *********************************************************
  
  ****************
  Analysis Options
  ****************
  Flow Units ............... CFS
  Process Models:
    Rainfall/Runoff ........ YES
    RDII ................... NO
    Snowmelt ............... NO
    Groundwater ............ NO
    Flow Routing ........... YES
    Ponding Allowed ........ NO
    Water Quality .......... NO
  Infiltration Method ...... GREEN_AMPT
  Flow Routing Method ...... DYNWAVE
  Surcharge Method ......... EXTRAN
  Starting Date ............ 01/14/2010 00:00:00
  Ending Date .............. 01/15/2010 00:00:00
  Antecedent Dry Days ...... 0.0
  Report Time Step ......... 00:06:00
  Wet Time Step ............ 00:06:00
  Dry Time Step ............ 01:00:00
  Routing Time Step ........ 0.75 sec
  Variable Time Step ....... YES
  Maximum Trials ........... 8
  Number of Threads ........ 1
  Head Tolerance ........... 0.005000 ft
  
  
  **************************        Volume         Depth
  Runoff Quantity Continuity     acre-feet        inches
  **************************     ---------       -------
  Total Precipitation ......         0.000         0.000
  Evaporation Loss .........         0.000         0.000
  Infiltration Loss ........         0.000         0.000
  Surface Runoff ...........         0.000         0.000
  Final Storage ............         0.000         0.000
  Continuity Error (%) .....         0.000
  
  
  **************************        Volume        Volume
  Flow Routing Continuity        acre-feet      10^6 gal
  **************************     ---------     ---------
  Dry Weather Inflow .......         0.000         0.000
  Wet Weather Inflow .......         0.000         0.000
  Groundwater Inflow .......         0.000         0.000
  RDII Inflow ..............         0.000         0.000
  External Inflow ..........         0.000         0.000
  External Outflow .........         0.000         0.000
  Flooding Loss ............         0.000         0.000
  Evaporation Loss .........         0.000         0.000
  Exfiltration Loss ........         0.000         0.000
  Initial Stored Volume ....         0.001         0.000
  Final Stored Volume ......         0.001         0.000
  Continuity Error (%) .....         0.000
  
  
  ***************************
  Time-Step Critical Elements
  ***************************
  None
  
  
  ********************************
  Highest Flow Instability Indexes
  ********************************
  All links are stable.
  
  
  ***************************
  Subcatchment Runoff Summary
  ***************************
  
  ------------------------------------------------------------------------------------------------------------------------------
                            Total      Total      Total      Total     Imperv       Perv      Total       Total     Peak  Runoff
                           Precip      Runon       Evap      Infil     Runoff     Runoff     Runoff      Runoff   Runoff   Coeff
  Subcatchment                 in         in         in         in         in         in         in    10^6 gal      CFS
  ------------------------------------------------------------------------------------------------------------------------------
  S40891                     0.00       0.00       0.00       0.00       0.00       0.00       0.00        0.00     0.00   0.000
  S45321                     0.00       0.00       0.00       0.00       0.00       0.00       0.00        0.00     0.00   0.000
  S3992                      0.00       0.00       0.00       0.00       0.00       0.00       0.00        0.00     0.00   0.000
  S4182                      0.00       0.00       0.00       0.00       0.00       0.00       0.00        0.00     0.00   0.000
  S39991                     0.00       0.00       0.00       0.00       0.00       0.00       0.00        0.00     0.00   0.000
  S39992                     0.00       0.00       0.00       0.00       0.00       0.00       0.00        0.00     0.00   0.000
  S4172                      0.00       0.00       0.00       0.00       0.00       0.00       0.00        0.00     0.00   0.000
  S4165                      0.00       0.00       0.00       0.00       0.00       0.00       0.00        0.00     0.00   0.000
  S3995                      0.00       0.00       0.00       0.00       0.00       0.00       0.00        0.00     0.00   0.000
  S3997                      0.00       0.00       0.00       0.00       0.00       0.00       0.00        0.00     0.00   0.000
  S4174                      0.00       0.00       0.00       0.00       0.00       0.00       0.00        0.00     0.00   0.000
  S4171                      0.00       0.00       0.00       0.00       0.00       0.00       0.00        0.00     0.00   0.000
  S41701                     0.00       0.00       0.00       0.00       0.00       0.00       0.00        0.00     0.00   0.000
  S41681                     0.00       0.00       0.00       0.00       0.00       0.00       0.00        0.00     0.00   0.000
  S41661                     0.00       0.00       0.00       0.00       0.00       0.00       0.00        0.00     0.00   0.000
  S4556                      0.00       0.00       0.00       0.00       0.00       0.00       0.00        0.00     0.00   0.000
  S41702                     0.00       0.00       0.00       0.00       0.00       0.00       0.00        0.00     0.00   0.000
  S45351                     0.00       0.00       0.00       0.00       0.00       0.00       0.00        0.00     0.00   0.000
  S4533                      0.00       0.00       0.00       0.00       0.00       0.00       0.00        0.00     0.00   0.000
  S5108                      0.00       0.00       0.00       0.00       0.00       0.00       0.00        0.00     0.00   0.000
  S45361                     0.00       0.00       0.00       0.00       0.00       0.00       0.00        0.00     0.00   0.000
  S39901                     0.00       0.00       0.00       0.00       0.00       0.00       0.00        0.00     0.00   0.000
  S45311                     0.00       0.00       0.00       0.00       0.00       0.00       0.00        0.00     0.00   0.000
  S41682                     0.00       0.00       0.00       0.00       0.00       0.00       0.00        0.00     0.00   0.000
  S41683                     0.00       0.00       0.00       0.00       0.00       0.00       0.00        0.00     0.00   0.000
  S4527                      0.00       0.00       0.00       0.00       0.00       0.00       0.00        0.00     0.00   0.000
  S4528                      0.00       0.00       0.00       0.00       0.00       0.00       0.00        0.00     0.00   0.000
  S45322                     0.00       0.00       0.00       0.00       0.00       0.00       0.00        0.00     0.00   0.000
  S45312                     0.00       0.00       0.00       0.00       0.00       0.00       0.00        0.00     0.00   0.000
  S4835                      0.00       0.00       0.00       0.00       0.00       0.00       0.00        0.00     0.00   0.000
  S4851                      0.00       0.00       0.00       0.00       0.00       0.00       0.00        0.00     0.00   0.000
  S5098                      0.00       0.00       0.00       0.00       0.00       0.00       0.00        0.00     0.00   0.000
  S40892                     0.00       0.00       0.00       0.00       0.00       0.00       0.00        0.00     0.00   0.000
  S4836                      0.00       0.00       0.00       0.00       0.00       0.00       0.00        0.00     0.00   0.000
  S4837                      0.00       0.00       0.00       0.00       0.00       0.00       0.00        0.00     0.00   0.000
  S41751                     0.00       0.00       0.00       0.00       0.00       0.00       0.00        0.00     0.00   0.000
  S41752                     0.00       0.00       0.00       0.00       0.00       0.00       0.00        0.00     0.00   0.000
  S4574                      0.00       0.00       0.00       0.00       0.00       0.00       0.00        0.00     0.00   0.000
  S41761                     0.00       0.00       0.00       0.00       0.00       0.00       0.00        0.00     0.00   0.000
  S45371                     0.00       0.00       0.00       0.00       0.00       0.00       0.00        0.00     0.00   0.000
  S4538                      0.00       0.00       0.00       0.00       0.00       0.00       0.00        0.00     0.00   0.000
  S45372                     0.00       0.00       0.00       0.00       0.00       0.00       0.00        0.00     0.00   0.000
  S45411                     0.00       0.00       0.00       0.00       0.00       0.00       0.00        0.00     0.00   0.000
  S4540                      0.00       0.00       0.00       0.00       0.00       0.00       0.00        0.00     0.00   0.000
  S4539                      0.00       0.00       0.00       0.00       0.00       0.00       0.00        0.00     0.00   0.000
  S4542                      0.00       0.00       0.00       0.00       0.00       0.00       0.00        0.00     0.00   0.000
  S45412                     0.00       0.00       0.00       0.00       0.00       0.00       0.00        0.00     0.00   0.000
  S49451                     0.00       0.00       0.00       0.00       0.00       0.00       0.00        0.00     0.00   0.000
  S3983                      0.00       0.00       0.00       0.00       0.00       0.00       0.00        0.00     0.00   0.000
  S4003                      0.00       0.00       0.00       0.00       0.00       0.00       0.00        0.00     0.00   0.000
  S3942                      0.00       0.00       0.00       0.00       0.00       0.00       0.00        0.00     0.00   0.000
  S4190                      0.00       0.00       0.00       0.00       0.00       0.00       0.00        0.00     0.00   0.000
  S4192                      0.00       0.00       0.00       0.00       0.00       0.00       0.00        0.00     0.00   0.000
  S4194                      0.00       0.00       0.00       0.00       0.00       0.00       0.00        0.00     0.00   0.000
  S4580                      0.00       0.00       0.00       0.00       0.00       0.00       0.00        0.00     0.00   0.000
  S3939                      0.00       0.00       0.00       0.00       0.00       0.00       0.00        0.00     0.00   0.000
  S41081                     0.00       0.00       0.00       0.00       0.00       0.00       0.00        0.00     0.00   0.000
  S4110                      0.00       0.00       0.00       0.00       0.00       0.00       0.00        0.00     0.00   0.000
  S4104                      0.00       0.00       0.00       0.00       0.00       0.00       0.00        0.00     0.00   0.000
  S39691                     0.00       0.00       0.00       0.00       0.00       0.00       0.00        0.00     0.00   0.000
  S4101                      0.00       0.00       0.00       0.00       0.00       0.00       0.00        0.00     0.00   0.000
  S3966                      0.00       0.00       0.00       0.00       0.00       0.00       0.00        0.00     0.00   0.000
  S4355                      0.00       0.00       0.00       0.00       0.00       0.00       0.00        0.00     0.00   0.000
  S4076                      0.00       0.00       0.00       0.00       0.00       0.00       0.00        0.00     0.00   0.000
  S5030                      0.00       0.00       0.00       0.00       0.00       0.00       0.00        0.00     0.00   0.000
  S43401                     0.00       0.00       0.00       0.00       0.00       0.00       0.00        0.00     0.00   0.000
  S43411                     0.00       0.00       0.00       0.00       0.00       0.00       0.00        0.00     0.00   0.000
  S43402                     0.00       0.00       0.00       0.00       0.00       0.00       0.00        0.00     0.00   0.000
  S49641                     0.00       0.00       0.00       0.00       0.00       0.00       0.00        0.00     0.00   0.000
  S41762                     0.00       0.00       0.00       0.00       0.00       0.00       0.00        0.00     0.00   0.000
  S5120                      0.00       0.00       0.00       0.00       0.00       0.00       0.00        0.00     0.00   0.000
  S5118                      0.00       0.00       0.00       0.00       0.00       0.00       0.00        0.00     0.00   0.000
  S4895                      0.00       0.00       0.00       0.00       0.00       0.00       0.00        0.00     0.00   0.000
  S4896                      0.00       0.00       0.00       0.00       0.00       0.00       0.00        0.00     0.00   0.000
  S4897                      0.00       0.00       0.00       0.00       0.00       0.00       0.00        0.00     0.00   0.000
  S4899                      0.00       0.00       0.00       0.00       0.00       0.00       0.00        0.00     0.00   0.000
  S4928                      0.00       0.00       0.00       0.00       0.00       0.00       0.00        0.00     0.00   0.000
  S4927                      0.00       0.00       0.00       0.00       0.00       0.00       0.00        0.00     0.00   0.000
  S4925                      0.00       0.00       0.00       0.00       0.00       0.00       0.00        0.00     0.00   0.000
  S4923                      0.00       0.00       0.00       0.00       0.00       0.00       0.00        0.00     0.00   0.000
  S4921                      0.00       0.00       0.00       0.00       0.00       0.00       0.00        0.00     0.00   0.000
  S4956                      0.00       0.00       0.00       0.00       0.00       0.00       0.00        0.00     0.00   0.000
  S49531                     0.00       0.00       0.00       0.00       0.00       0.00       0.00        0.00     0.00   0.000
  S4950                      0.00       0.00       0.00       0.00       0.00       0.00       0.00        0.00     0.00   0.000
  S4947                      0.00       0.00       0.00       0.00       0.00       0.00       0.00        0.00     0.00   0.000
  S49452                     0.00       0.00       0.00       0.00       0.00       0.00       0.00        0.00     0.00   0.000
  S49532                     0.00       0.00       0.00       0.00       0.00       0.00       0.00        0.00     0.00   0.000
  S4493                      0.00       0.00       0.00       0.00       0.00       0.00       0.00        0.00     0.00   0.000
  S41551                     0.00       0.00       0.00       0.00       0.00       0.00       0.00        0.00     0.00   0.000
  S4786                      0.00       0.00       0.00       0.00       0.00       0.00       0.00        0.00     0.00   0.000
  S4787                      0.00       0.00       0.00       0.00       0.00       0.00       0.00        0.00     0.00   0.000
  S4785                      0.00       0.00       0.00       0.00       0.00       0.00       0.00        0.00     0.00   0.000
  S41552                     0.00       0.00       0.00       0.00       0.00       0.00       0.00        0.00     0.00   0.000
  S4502                      0.00       0.00       0.00       0.00       0.00       0.00       0.00        0.00     0.00   0.000
  S48061                     0.00       0.00       0.00       0.00       0.00       0.00       0.00        0.00     0.00   0.000
  S48062                     0.00       0.00       0.00       0.00       0.00       0.00       0.00        0.00     0.00   0.000
  S4817                      0.00       0.00       0.00       0.00       0.00       0.00       0.00        0.00     0.00   0.000
  S4760                      0.00       0.00       0.00       0.00       0.00       0.00       0.00        0.00     0.00   0.000
  S47581                     0.00       0.00       0.00       0.00       0.00       0.00       0.00        0.00     0.00   0.000
  S41541                     0.00       0.00       0.00       0.00       0.00       0.00       0.00        0.00     0.00   0.000
  S41542                     0.00       0.00       0.00       0.00       0.00       0.00       0.00        0.00     0.00   0.000
  S39771                     0.00       0.00       0.00       0.00       0.00       0.00       0.00        0.00     0.00   0.000
  S3975                      0.00       0.00       0.00       0.00       0.00       0.00       0.00        0.00     0.00   0.000
  S41421                     0.00       0.00       0.00       0.00       0.00       0.00       0.00        0.00     0.00   0.000
  S4141                      0.00       0.00       0.00       0.00       0.00       0.00       0.00        0.00     0.00   0.000
  S41391                     0.00       0.00       0.00       0.00       0.00       0.00       0.00        0.00     0.00   0.000
  S4138                      0.00       0.00       0.00       0.00       0.00       0.00       0.00        0.00     0.00   0.000
  S4137                      0.00       0.00       0.00       0.00       0.00       0.00       0.00        0.00     0.00   0.000
  S39741                     0.00       0.00       0.00       0.00       0.00       0.00       0.00        0.00     0.00   0.000
  S45413                     0.00       0.00       0.00       0.00       0.00       0.00       0.00        0.00     0.00   0.000
  S4092                      0.00       0.00       0.00       0.00       0.00       0.00       0.00        0.00     0.00   0.000
  S4091                      0.00       0.00       0.00       0.00       0.00       0.00       0.00        0.00     0.00   0.000
  S4090                      0.00       0.00       0.00       0.00       0.00       0.00       0.00        0.00     0.00   0.000
  S40893                     0.00       0.00       0.00       0.00       0.00       0.00       0.00        0.00     0.00   0.000
  S40894                     0.00       0.00       0.00       0.00       0.00       0.00       0.00        0.00     0.00   0.000
  S40871                     0.00       0.00       0.00       0.00       0.00       0.00       0.00        0.00     0.00   0.000
  S4088                      0.00       0.00       0.00       0.00       0.00       0.00       0.00        0.00     0.00   0.000
  S44051                     0.00       0.00       0.00       0.00       0.00       0.00       0.00        0.00     0.00   0.000
  S39742                     0.00       0.00       0.00       0.00       0.00       0.00       0.00        0.00     0.00   0.000
  S40872                     0.00       0.00       0.00       0.00       0.00       0.00       0.00        0.00     0.00   0.000
  S40873                     0.00       0.00       0.00       0.00       0.00       0.00       0.00        0.00     0.00   0.000
  S4459                      0.00       0.00       0.00       0.00       0.00       0.00       0.00        0.00     0.00   0.000
  S41071                     0.00       0.00       0.00       0.00       0.00       0.00       0.00        0.00     0.00   0.000
  S4127                      0.00       0.00       0.00       0.00       0.00       0.00       0.00        0.00     0.00   0.000
  S4447                      0.00       0.00       0.00       0.00       0.00       0.00       0.00        0.00     0.00   0.000
  S41051                     0.00       0.00       0.00       0.00       0.00       0.00       0.00        0.00     0.00   0.000
  S41241                     0.00       0.00       0.00       0.00       0.00       0.00       0.00        0.00     0.00   0.000
  S4962                      0.00       0.00       0.00       0.00       0.00       0.00       0.00        0.00     0.00   0.000
  S4201                      0.00       0.00       0.00       0.00       0.00       0.00       0.00        0.00     0.00   0.000
  S43412                     0.00       0.00       0.00       0.00       0.00       0.00       0.00        0.00     0.00   0.000
  S4200                      0.00       0.00       0.00       0.00       0.00       0.00       0.00        0.00     0.00   0.000
  S41422                     0.00       0.00       0.00       0.00       0.00       0.00       0.00        0.00     0.00   0.000
  S41242                     0.00       0.00       0.00       0.00       0.00       0.00       0.00        0.00     0.00   0.000
  S41243                     0.00       0.00       0.00       0.00       0.00       0.00       0.00        0.00     0.00   0.000
  S41392                     0.00       0.00       0.00       0.00       0.00       0.00       0.00        0.00     0.00   0.000
  S39692                     0.00       0.00       0.00       0.00       0.00       0.00       0.00        0.00     0.00   0.000
  S39721                     0.00       0.00       0.00       0.00       0.00       0.00       0.00        0.00     0.00   0.000
  S39722                     0.00       0.00       0.00       0.00       0.00       0.00       0.00        0.00     0.00   0.000
  S39743                     0.00       0.00       0.00       0.00       0.00       0.00       0.00        0.00     0.00   0.000
  S40874                     0.00       0.00       0.00       0.00       0.00       0.00       0.00        0.00     0.00   0.000
  S39744                     0.00       0.00       0.00       0.00       0.00       0.00       0.00        0.00     0.00   0.000
  S40801                     0.00       0.00       0.00       0.00       0.00       0.00       0.00        0.00     0.00   0.000
  S4353                      0.00       0.00       0.00       0.00       0.00       0.00       0.00        0.00     0.00   0.000
  S40861                     0.00       0.00       0.00       0.00       0.00       0.00       0.00        0.00     0.00   0.000
  S40862                     0.00       0.00       0.00       0.00       0.00       0.00       0.00        0.00     0.00   0.000
  S40841                     0.00       0.00       0.00       0.00       0.00       0.00       0.00        0.00     0.00   0.000
  S40842                     0.00       0.00       0.00       0.00       0.00       0.00       0.00        0.00     0.00   0.000
  S40811                     0.00       0.00       0.00       0.00       0.00       0.00       0.00        0.00     0.00   0.000
  S4079                      0.00       0.00       0.00       0.00       0.00       0.00       0.00        0.00     0.00   0.000
  S43501                     0.00       0.00       0.00       0.00       0.00       0.00       0.00        0.00     0.00   0.000
  S4073                      0.00       0.00       0.00       0.00       0.00       0.00       0.00        0.00     0.00   0.000
  S43502                     0.00       0.00       0.00       0.00       0.00       0.00       0.00        0.00     0.00   0.000
  S40711                     0.00       0.00       0.00       0.00       0.00       0.00       0.00        0.00     0.00   0.000
  S4333                      0.00       0.00       0.00       0.00       0.00       0.00       0.00        0.00     0.00   0.000
  S43361                     0.00       0.00       0.00       0.00       0.00       0.00       0.00        0.00     0.00   0.000
  S47171                     0.00       0.00       0.00       0.00       0.00       0.00       0.00        0.00     0.00   0.000
  S47172                     0.00       0.00       0.00       0.00       0.00       0.00       0.00        0.00     0.00   0.000
  S43362                     0.00       0.00       0.00       0.00       0.00       0.00       0.00        0.00     0.00   0.000
  S4049                      0.00       0.00       0.00       0.00       0.00       0.00       0.00        0.00     0.00   0.000
  S4047                      0.00       0.00       0.00       0.00       0.00       0.00       0.00        0.00     0.00   0.000
  S40641                     0.00       0.00       0.00       0.00       0.00       0.00       0.00        0.00     0.00   0.000
  S40631                     0.00       0.00       0.00       0.00       0.00       0.00       0.00        0.00     0.00   0.000
  S45291                     0.00       0.00       0.00       0.00       0.00       0.00       0.00        0.00     0.00   0.000
  S4383                      0.00       0.00       0.00       0.00       0.00       0.00       0.00        0.00     0.00   0.000
  S4085                      0.00       0.00       0.00       0.00       0.00       0.00       0.00        0.00     0.00   0.000
  S4795                      0.00       0.00       0.00       0.00       0.00       0.00       0.00        0.00     0.00   0.000
  S4820                      0.00       0.00       0.00       0.00       0.00       0.00       0.00        0.00     0.00   0.000
  S5067                      0.00       0.00       0.00       0.00       0.00       0.00       0.00        0.00     0.00   0.000
  S5069                      0.00       0.00       0.00       0.00       0.00       0.00       0.00        0.00     0.00   0.000
  S48063                     0.00       0.00       0.00       0.00       0.00       0.00       0.00        0.00     0.00   0.000
  S4516                      0.00       0.00       0.00       0.00       0.00       0.00       0.00        0.00     0.00   0.000
  S4162                      0.00       0.00       0.00       0.00       0.00       0.00       0.00        0.00     0.00   0.000
  S4163                      0.00       0.00       0.00       0.00       0.00       0.00       0.00        0.00     0.00   0.000
  S5043                      0.00       0.00       0.00       0.00       0.00       0.00       0.00        0.00     0.00   0.000
  S4793                      0.00       0.00       0.00       0.00       0.00       0.00       0.00        0.00     0.00   0.000
  S4156                      0.00       0.00       0.00       0.00       0.00       0.00       0.00        0.00     0.00   0.000
  S4158                      0.00       0.00       0.00       0.00       0.00       0.00       0.00        0.00     0.00   0.000
  S4159                      0.00       0.00       0.00       0.00       0.00       0.00       0.00        0.00     0.00   0.000
  S4725                      0.00       0.00       0.00       0.00       0.00       0.00       0.00        0.00     0.00   0.000
  S4789                      0.00       0.00       0.00       0.00       0.00       0.00       0.00        0.00     0.00   0.000
  S5169                      0.00       0.00       0.00       0.00       0.00       0.00       0.00        0.00     0.00   0.000
  S41553                     0.00       0.00       0.00       0.00       0.00       0.00       0.00        0.00     0.00   0.000
  S4936                      0.00       0.00       0.00       0.00       0.00       0.00       0.00        0.00     0.00   0.000
  S41052                     0.00       0.00       0.00       0.00       0.00       0.00       0.00        0.00     0.00   0.000
  S4106                      0.00       0.00       0.00       0.00       0.00       0.00       0.00        0.00     0.00   0.000
  S41072                     0.00       0.00       0.00       0.00       0.00       0.00       0.00        0.00     0.00   0.000
  S41082                     0.00       0.00       0.00       0.00       0.00       0.00       0.00        0.00     0.00   0.000
  S41083                     0.00       0.00       0.00       0.00       0.00       0.00       0.00        0.00     0.00   0.000
  S39772                     0.00       0.00       0.00       0.00       0.00       0.00       0.00        0.00     0.00   0.000
  S47582                     0.00       0.00       0.00       0.00       0.00       0.00       0.00        0.00     0.00   0.000
  S4146                      0.00       0.00       0.00       0.00       0.00       0.00       0.00        0.00     0.00   0.000
  S44052                     0.00       0.00       0.00       0.00       0.00       0.00       0.00        0.00     0.00   0.000
  S49691                     0.00       0.00       0.00       0.00       0.00       0.00       0.00        0.00     0.00   0.000
  S45871                     0.00       0.00       0.00       0.00       0.00       0.00       0.00        0.00     0.00   0.000
  S47261                     0.00       0.00       0.00       0.00       0.00       0.00       0.00        0.00     0.00   0.000
  S45872                     0.00       0.00       0.00       0.00       0.00       0.00       0.00        0.00     0.00   0.000
  S47271                     0.00       0.00       0.00       0.00       0.00       0.00       0.00        0.00     0.00   0.000
  S47272                     0.00       0.00       0.00       0.00       0.00       0.00       0.00        0.00     0.00   0.000
  S47273                     0.00       0.00       0.00       0.00       0.00       0.00       0.00        0.00     0.00   0.000
  S47274                     0.00       0.00       0.00       0.00       0.00       0.00       0.00        0.00     0.00   0.000
  S4728                      0.00       0.00       0.00       0.00       0.00       0.00       0.00        0.00     0.00   0.000
  S47275                     0.00       0.00       0.00       0.00       0.00       0.00       0.00        0.00     0.00   0.000
  S4509                      0.00       0.00       0.00       0.00       0.00       0.00       0.00        0.00     0.00   0.000
  S45841                     0.00       0.00       0.00       0.00       0.00       0.00       0.00        0.00     0.00   0.000
  S4510                      0.00       0.00       0.00       0.00       0.00       0.00       0.00        0.00     0.00   0.000
  S45081                     0.00       0.00       0.00       0.00       0.00       0.00       0.00        0.00     0.00   0.000
  S52051                     0.00       0.00       0.00       0.00       0.00       0.00       0.00        0.00     0.00   0.000
  S52052                     0.00       0.00       0.00       0.00       0.00       0.00       0.00        0.00     0.00   0.000
  S45082                     0.00       0.00       0.00       0.00       0.00       0.00       0.00        0.00     0.00   0.000
  S51701                     0.00       0.00       0.00       0.00       0.00       0.00       0.00        0.00     0.00   0.000
  S52053                     0.00       0.00       0.00       0.00       0.00       0.00       0.00        0.00     0.00   0.000
  S50571                     0.00       0.00       0.00       0.00       0.00       0.00       0.00        0.00     0.00   0.000
  S5204                      0.00       0.00       0.00       0.00       0.00       0.00       0.00        0.00     0.00   0.000
  S48081                     0.00       0.00       0.00       0.00       0.00       0.00       0.00        0.00     0.00   0.000
  S45842                     0.00       0.00       0.00       0.00       0.00       0.00       0.00        0.00     0.00   0.000
  S51702                     0.00       0.00       0.00       0.00       0.00       0.00       0.00        0.00     0.00   0.000
  S48082                     0.00       0.00       0.00       0.00       0.00       0.00       0.00        0.00     0.00   0.000
  S51703                     0.00       0.00       0.00       0.00       0.00       0.00       0.00        0.00     0.00   0.000
  S48091                     0.00       0.00       0.00       0.00       0.00       0.00       0.00        0.00     0.00   0.000
  S50591                     0.00       0.00       0.00       0.00       0.00       0.00       0.00        0.00     0.00   0.000
  S48092                     0.00       0.00       0.00       0.00       0.00       0.00       0.00        0.00     0.00   0.000
  S50592                     0.00       0.00       0.00       0.00       0.00       0.00       0.00        0.00     0.00   0.000
  S48093                     0.00       0.00       0.00       0.00       0.00       0.00       0.00        0.00     0.00   0.000
  S50593                     0.00       0.00       0.00       0.00       0.00       0.00       0.00        0.00     0.00   0.000
  S48094                     0.00       0.00       0.00       0.00       0.00       0.00       0.00        0.00     0.00   0.000
  S49692                     0.00       0.00       0.00       0.00       0.00       0.00       0.00        0.00     0.00   0.000
  S50594                     0.00       0.00       0.00       0.00       0.00       0.00       0.00        0.00     0.00   0.000
  S48095                     0.00       0.00       0.00       0.00       0.00       0.00       0.00        0.00     0.00   0.000
  S50595                     0.00       0.00       0.00       0.00       0.00       0.00       0.00        0.00     0.00   0.000
  S4810                      0.00       0.00       0.00       0.00       0.00       0.00       0.00        0.00     0.00   0.000
  S5060                      0.00       0.00       0.00       0.00       0.00       0.00       0.00        0.00     0.00   0.000
  S48111                     0.00       0.00       0.00       0.00       0.00       0.00       0.00        0.00     0.00   0.000
  S50611                     0.00       0.00       0.00       0.00       0.00       0.00       0.00        0.00     0.00   0.000
  S48112                     0.00       0.00       0.00       0.00       0.00       0.00       0.00        0.00     0.00   0.000
  S5062                      0.00       0.00       0.00       0.00       0.00       0.00       0.00        0.00     0.00   0.000
  S4812                      0.00       0.00       0.00       0.00       0.00       0.00       0.00        0.00     0.00   0.000
  S49693                     0.00       0.00       0.00       0.00       0.00       0.00       0.00        0.00     0.00   0.000
  S5063                      0.00       0.00       0.00       0.00       0.00       0.00       0.00        0.00     0.00   0.000
  S48131                     0.00       0.00       0.00       0.00       0.00       0.00       0.00        0.00     0.00   0.000
  S50641                     0.00       0.00       0.00       0.00       0.00       0.00       0.00        0.00     0.00   0.000
  S4814                      0.00       0.00       0.00       0.00       0.00       0.00       0.00        0.00     0.00   0.000
  S50642                     0.00       0.00       0.00       0.00       0.00       0.00       0.00        0.00     0.00   0.000
  S48151                     0.00       0.00       0.00       0.00       0.00       0.00       0.00        0.00     0.00   0.000
  S50661                     0.00       0.00       0.00       0.00       0.00       0.00       0.00        0.00     0.00   0.000
  S48152                     0.00       0.00       0.00       0.00       0.00       0.00       0.00        0.00     0.00   0.000
  S50662                     0.00       0.00       0.00       0.00       0.00       0.00       0.00        0.00     0.00   0.000
  S48153                     0.00       0.00       0.00       0.00       0.00       0.00       0.00        0.00     0.00   0.000
  S49642                     0.00       0.00       0.00       0.00       0.00       0.00       0.00        0.00     0.00   0.000
  S50663                     0.00       0.00       0.00       0.00       0.00       0.00       0.00        0.00     0.00   0.000
  S45041                     0.00       0.00       0.00       0.00       0.00       0.00       0.00        0.00     0.00   0.000
  S49643                     0.00       0.00       0.00       0.00       0.00       0.00       0.00        0.00     0.00   0.000
  S49711                     0.00       0.00       0.00       0.00       0.00       0.00       0.00        0.00     0.00   0.000
  S47262                     0.00       0.00       0.00       0.00       0.00       0.00       0.00        0.00     0.00   0.000
  S45083                     0.00       0.00       0.00       0.00       0.00       0.00       0.00        0.00     0.00   0.000
  S45042                     0.00       0.00       0.00       0.00       0.00       0.00       0.00        0.00     0.00   0.000
  S50643                     0.00       0.00       0.00       0.00       0.00       0.00       0.00        0.00     0.00   0.000
  S49694                     0.00       0.00       0.00       0.00       0.00       0.00       0.00        0.00     0.00   0.000
  S49695                     0.00       0.00       0.00       0.00       0.00       0.00       0.00        0.00     0.00   0.000
  S48132                     0.00       0.00       0.00       0.00       0.00       0.00       0.00        0.00     0.00   0.000
  S48096                     0.00       0.00       0.00       0.00       0.00       0.00       0.00        0.00     0.00   0.000
  S48083                     0.00       0.00       0.00       0.00       0.00       0.00       0.00        0.00     0.00   0.000
  S48084                     0.00       0.00       0.00       0.00       0.00       0.00       0.00        0.00     0.00   0.000
  S50572                     0.00       0.00       0.00       0.00       0.00       0.00       0.00        0.00     0.00   0.000
  S50573                     0.00       0.00       0.00       0.00       0.00       0.00       0.00        0.00     0.00   0.000
  S52061                     0.00       0.00       0.00       0.00       0.00       0.00       0.00        0.00     0.00   0.000
  S52062                     0.00       0.00       0.00       0.00       0.00       0.00       0.00        0.00     0.00   0.000
  S50612                     0.00       0.00       0.00       0.00       0.00       0.00       0.00        0.00     0.00   0.000
  S47276                     0.00       0.00       0.00       0.00       0.00       0.00       0.00        0.00     0.00   0.000
  S47263                     0.00       0.00       0.00       0.00       0.00       0.00       0.00        0.00     0.00   0.000
  S49644                     0.00       0.00       0.00       0.00       0.00       0.00       0.00        0.00     0.00   0.000
  S45843                     0.00       0.00       0.00       0.00       0.00       0.00       0.00        0.00     0.00   0.000
  S45084                     0.00       0.00       0.00       0.00       0.00       0.00       0.00        0.00     0.00   0.000
  S50596                     0.00       0.00       0.00       0.00       0.00       0.00       0.00        0.00     0.00   0.000
  S51704                     0.00       0.00       0.00       0.00       0.00       0.00       0.00        0.00     0.00   0.000
  S51705                     0.00       0.00       0.00       0.00       0.00       0.00       0.00        0.00     0.00   0.000
  S52054                     0.00       0.00       0.00       0.00       0.00       0.00       0.00        0.00     0.00   0.000
  S47277                     0.00       0.00       0.00       0.00       0.00       0.00       0.00        0.00     0.00   0.000
  S49712                     0.00       0.00       0.00       0.00       0.00       0.00       0.00        0.00     0.00   0.000
  S49713                     0.00       0.00       0.00       0.00       0.00       0.00       0.00        0.00     0.00   0.000
  S43091                     0.00       0.00       0.00       0.00       0.00       0.00       0.00        0.00     0.00   0.000
  S43011                     0.00       0.00       0.00       0.00       0.00       0.00       0.00        0.00     0.00   0.000
  S4294                      0.00       0.00       0.00       0.00       0.00       0.00       0.00        0.00     0.00   0.000
  S43012                     0.00       0.00       0.00       0.00       0.00       0.00       0.00        0.00     0.00   0.000
  S4062                      0.00       0.00       0.00       0.00       0.00       0.00       0.00        0.00     0.00   0.000
  S4692                      0.00       0.00       0.00       0.00       0.00       0.00       0.00        0.00     0.00   0.000
  S43141                     0.00       0.00       0.00       0.00       0.00       0.00       0.00        0.00     0.00   0.000
  S4322                      0.00       0.00       0.00       0.00       0.00       0.00       0.00        0.00     0.00   0.000
  S43211                     0.00       0.00       0.00       0.00       0.00       0.00       0.00        0.00     0.00   0.000
  S46991                     0.00       0.00       0.00       0.00       0.00       0.00       0.00        0.00     0.00   0.000
  S4331                      0.00       0.00       0.00       0.00       0.00       0.00       0.00        0.00     0.00   0.000
  S46931                     0.00       0.00       0.00       0.00       0.00       0.00       0.00        0.00     0.00   0.000
  S4330                      0.00       0.00       0.00       0.00       0.00       0.00       0.00        0.00     0.00   0.000
  S47021                     0.00       0.00       0.00       0.00       0.00       0.00       0.00        0.00     0.00   0.000
  S50791                     0.00       0.00       0.00       0.00       0.00       0.00       0.00        0.00     0.00   0.000
  S50781                     0.00       0.00       0.00       0.00       0.00       0.00       0.00        0.00     0.00   0.000
  S48391                     0.00       0.00       0.00       0.00       0.00       0.00       0.00        0.00     0.00   0.000
  S48311                     0.00       0.00       0.00       0.00       0.00       0.00       0.00        0.00     0.00   0.000
  S48291                     0.00       0.00       0.00       0.00       0.00       0.00       0.00        0.00     0.00   0.000
  S40151                     0.00       0.00       0.00       0.00       0.00       0.00       0.00        0.00     0.00   0.000
  S43281                     0.00       0.00       0.00       0.00       0.00       0.00       0.00        0.00     0.00   0.000
  S43291                     0.00       0.00       0.00       0.00       0.00       0.00       0.00        0.00     0.00   0.000
  S43061                     0.00       0.00       0.00       0.00       0.00       0.00       0.00        0.00     0.00   0.000
  S43261                     0.00       0.00       0.00       0.00       0.00       0.00       0.00        0.00     0.00   0.000
  S43271                     0.00       0.00       0.00       0.00       0.00       0.00       0.00        0.00     0.00   0.000
  S43201                     0.00       0.00       0.00       0.00       0.00       0.00       0.00        0.00     0.00   0.000
  S40421                     0.00       0.00       0.00       0.00       0.00       0.00       0.00        0.00     0.00   0.000
  S4250                      0.00       0.00       0.00       0.00       0.00       0.00       0.00        0.00     0.00   0.000
  S42461                     0.00       0.00       0.00       0.00       0.00       0.00       0.00        0.00     0.00   0.000
  S40051                     0.00       0.00       0.00       0.00       0.00       0.00       0.00        0.00     0.00   0.000
  S49811                     0.00       0.00       0.00       0.00       0.00       0.00       0.00        0.00     0.00   0.000
  S4305                      0.00       0.00       0.00       0.00       0.00       0.00       0.00        0.00     0.00   0.000
  S51481                     0.00       0.00       0.00       0.00       0.00       0.00       0.00        0.00     0.00   0.000
  S45921                     0.00       0.00       0.00       0.00       0.00       0.00       0.00        0.00     0.00   0.000
  S4992                      0.00       0.00       0.00       0.00       0.00       0.00       0.00        0.00     0.00   0.000
  S4972                      0.00       0.00       0.00       0.00       0.00       0.00       0.00        0.00     0.00   0.000
  S5195                      0.00       0.00       0.00       0.00       0.00       0.00       0.00        0.00     0.00   0.000
  S4973                      0.00       0.00       0.00       0.00       0.00       0.00       0.00        0.00     0.00   0.000
  S5224                      0.00       0.00       0.00       0.00       0.00       0.00       0.00        0.00     0.00   0.000
  S5200                      0.00       0.00       0.00       0.00       0.00       0.00       0.00        0.00     0.00   0.000
  S5152                      0.00       0.00       0.00       0.00       0.00       0.00       0.00        0.00     0.00   0.000
  S5150                      0.00       0.00       0.00       0.00       0.00       0.00       0.00        0.00     0.00   0.000
  S40521                     0.00       0.00       0.00       0.00       0.00       0.00       0.00        0.00     0.00   0.000
  S49812                     0.00       0.00       0.00       0.00       0.00       0.00       0.00        0.00     0.00   0.000
  S42471                     0.00       0.00       0.00       0.00       0.00       0.00       0.00        0.00     0.00   0.000
  S42462                     0.00       0.00       0.00       0.00       0.00       0.00       0.00        0.00     0.00   0.000
  S4614                      0.00       0.00       0.00       0.00       0.00       0.00       0.00        0.00     0.00   0.000
  S4245                      0.00       0.00       0.00       0.00       0.00       0.00       0.00        0.00     0.00   0.000
  S42472                     0.00       0.00       0.00       0.00       0.00       0.00       0.00        0.00     0.00   0.000
  S4252                      0.00       0.00       0.00       0.00       0.00       0.00       0.00        0.00     0.00   0.000
  S49801                     0.00       0.00       0.00       0.00       0.00       0.00       0.00        0.00     0.00   0.000
  S51621                     0.00       0.00       0.00       0.00       0.00       0.00       0.00        0.00     0.00   0.000
  S4616                      0.00       0.00       0.00       0.00       0.00       0.00       0.00        0.00     0.00   0.000
  S4304                      0.00       0.00       0.00       0.00       0.00       0.00       0.00        0.00     0.00   0.000
  S49802                     0.00       0.00       0.00       0.00       0.00       0.00       0.00        0.00     0.00   0.000
  S51482                     0.00       0.00       0.00       0.00       0.00       0.00       0.00        0.00     0.00   0.000
  S4303                      0.00       0.00       0.00       0.00       0.00       0.00       0.00        0.00     0.00   0.000
  S43021                     0.00       0.00       0.00       0.00       0.00       0.00       0.00        0.00     0.00   0.000
  S51622                     0.00       0.00       0.00       0.00       0.00       0.00       0.00        0.00     0.00   0.000
  S43142                     0.00       0.00       0.00       0.00       0.00       0.00       0.00        0.00     0.00   0.000
  S50782                     0.00       0.00       0.00       0.00       0.00       0.00       0.00        0.00     0.00   0.000
  S45922                     0.00       0.00       0.00       0.00       0.00       0.00       0.00        0.00     0.00   0.000
  S43013                     0.00       0.00       0.00       0.00       0.00       0.00       0.00        0.00     0.00   0.000
  S43143                     0.00       0.00       0.00       0.00       0.00       0.00       0.00        0.00     0.00   0.000
  S43202                     0.00       0.00       0.00       0.00       0.00       0.00       0.00        0.00     0.00   0.000
  S43292                     0.00       0.00       0.00       0.00       0.00       0.00       0.00        0.00     0.00   0.000
  S43262                     0.00       0.00       0.00       0.00       0.00       0.00       0.00        0.00     0.00   0.000
  S50792                     0.00       0.00       0.00       0.00       0.00       0.00       0.00        0.00     0.00   0.000
  S50783                     0.00       0.00       0.00       0.00       0.00       0.00       0.00        0.00     0.00   0.000
  S43272                     0.00       0.00       0.00       0.00       0.00       0.00       0.00        0.00     0.00   0.000
  S48392                     0.00       0.00       0.00       0.00       0.00       0.00       0.00        0.00     0.00   0.000
  S50784                     0.00       0.00       0.00       0.00       0.00       0.00       0.00        0.00     0.00   0.000
  S43293                     0.00       0.00       0.00       0.00       0.00       0.00       0.00        0.00     0.00   0.000
  S43294                     0.00       0.00       0.00       0.00       0.00       0.00       0.00        0.00     0.00   0.000
  S43263                     0.00       0.00       0.00       0.00       0.00       0.00       0.00        0.00     0.00   0.000
  S43203                     0.00       0.00       0.00       0.00       0.00       0.00       0.00        0.00     0.00   0.000
  S40681                     0.00       0.00       0.00       0.00       0.00       0.00       0.00        0.00     0.00   0.000
  S43144                     0.00       0.00       0.00       0.00       0.00       0.00       0.00        0.00     0.00   0.000
  S43282                     0.00       0.00       0.00       0.00       0.00       0.00       0.00        0.00     0.00   0.000
  S43145                     0.00       0.00       0.00       0.00       0.00       0.00       0.00        0.00     0.00   0.000
  S43146                     0.00       0.00       0.00       0.00       0.00       0.00       0.00        0.00     0.00   0.000
  S43147                     0.00       0.00       0.00       0.00       0.00       0.00       0.00        0.00     0.00   0.000
  S43014                     0.00       0.00       0.00       0.00       0.00       0.00       0.00        0.00     0.00   0.000
  S48312                     0.00       0.00       0.00       0.00       0.00       0.00       0.00        0.00     0.00   0.000
  S48292                     0.00       0.00       0.00       0.00       0.00       0.00       0.00        0.00     0.00   0.000
  S43015                     0.00       0.00       0.00       0.00       0.00       0.00       0.00        0.00     0.00   0.000
  S46992                     0.00       0.00       0.00       0.00       0.00       0.00       0.00        0.00     0.00   0.000
  S40522                     0.00       0.00       0.00       0.00       0.00       0.00       0.00        0.00     0.00   0.000
  S43092                     0.00       0.00       0.00       0.00       0.00       0.00       0.00        0.00     0.00   0.000
  S46932                     0.00       0.00       0.00       0.00       0.00       0.00       0.00        0.00     0.00   0.000
  S43062                     0.00       0.00       0.00       0.00       0.00       0.00       0.00        0.00     0.00   0.000
  S43022                     0.00       0.00       0.00       0.00       0.00       0.00       0.00        0.00     0.00   0.000
  S43016                     0.00       0.00       0.00       0.00       0.00       0.00       0.00        0.00     0.00   0.000
  S47022                     0.00       0.00       0.00       0.00       0.00       0.00       0.00        0.00     0.00   0.000
  S45971                     0.00       0.00       0.00       0.00       0.00       0.00       0.00        0.00     0.00   0.000
  S4202                      0.00       0.00       0.00       0.00       0.00       0.00       0.00        0.00     0.00   0.000
  S40052                     0.00       0.00       0.00       0.00       0.00       0.00       0.00        0.00     0.00   0.000
  S50793                     0.00       0.00       0.00       0.00       0.00       0.00       0.00        0.00     0.00   0.000
  S45923                     0.00       0.00       0.00       0.00       0.00       0.00       0.00        0.00     0.00   0.000
  S50785                     0.00       0.00       0.00       0.00       0.00       0.00       0.00        0.00     0.00   0.000
  S50794                     0.00       0.00       0.00       0.00       0.00       0.00       0.00        0.00     0.00   0.000
  S43148                     0.00       0.00       0.00       0.00       0.00       0.00       0.00        0.00     0.00   0.000
  S40682                     0.00       0.00       0.00       0.00       0.00       0.00       0.00        0.00     0.00   0.000
  S40152                     0.00       0.00       0.00       0.00       0.00       0.00       0.00        0.00     0.00   0.000
  S4242                      0.00       0.00       0.00       0.00       0.00       0.00       0.00        0.00     0.00   0.000
  S4030                      0.00       0.00       0.00       0.00       0.00       0.00       0.00        0.00     0.00   0.000
  S4258                      0.00       0.00       0.00       0.00       0.00       0.00       0.00        0.00     0.00   0.000
  S4995                      0.00       0.00       0.00       0.00       0.00       0.00       0.00        0.00     0.00   0.000
  S45924                     0.00       0.00       0.00       0.00       0.00       0.00       0.00        0.00     0.00   0.000
  S4589                      0.00       0.00       0.00       0.00       0.00       0.00       0.00        0.00     0.00   0.000
  S5180                      0.00       0.00       0.00       0.00       0.00       0.00       0.00        0.00     0.00   0.000
  S4988                      0.00       0.00       0.00       0.00       0.00       0.00       0.00        0.00     0.00   0.000
  S45972                     0.00       0.00       0.00       0.00       0.00       0.00       0.00        0.00     0.00   0.000
  S45973                     0.00       0.00       0.00       0.00       0.00       0.00       0.00        0.00     0.00   0.000
  S4017                      0.00       0.00       0.00       0.00       0.00       0.00       0.00        0.00     0.00   0.000
  S4019                      0.00       0.00       0.00       0.00       0.00       0.00       0.00        0.00     0.00   0.000
  S4978                      0.00       0.00       0.00       0.00       0.00       0.00       0.00        0.00     0.00   0.000
  S40153                     0.00       0.00       0.00       0.00       0.00       0.00       0.00        0.00     0.00   0.000
  S46933                     0.00       0.00       0.00       0.00       0.00       0.00       0.00        0.00     0.00   0.000
  S5183                      0.00       0.00       0.00       0.00       0.00       0.00       0.00        0.00     0.00   0.000
  S5189                      0.00       0.00       0.00       0.00       0.00       0.00       0.00        0.00     0.00   0.000
  S43063                     0.00       0.00       0.00       0.00       0.00       0.00       0.00        0.00     0.00   0.000
  S40683                     0.00       0.00       0.00       0.00       0.00       0.00       0.00        0.00     0.00   0.000
  S43212                     0.00       0.00       0.00       0.00       0.00       0.00       0.00        0.00     0.00   0.000
  S43017                     0.00       0.00       0.00       0.00       0.00       0.00       0.00        0.00     0.00   0.000
  S4599                      0.00       0.00       0.00       0.00       0.00       0.00       0.00        0.00     0.00   0.000
  S43018                     0.00       0.00       0.00       0.00       0.00       0.00       0.00        0.00     0.00   0.000
  S43149                     0.00       0.00       0.00       0.00       0.00       0.00       0.00        0.00     0.00   0.000
  S48313                     0.00       0.00       0.00       0.00       0.00       0.00       0.00        0.00     0.00   0.000
  S43264                     0.00       0.00       0.00       0.00       0.00       0.00       0.00        0.00     0.00   0.000
  S48314                     0.00       0.00       0.00       0.00       0.00       0.00       0.00        0.00     0.00   0.000
  S48293                     0.00       0.00       0.00       0.00       0.00       0.00       0.00        0.00     0.00   0.000
  S43093                     0.00       0.00       0.00       0.00       0.00       0.00       0.00        0.00     0.00   0.000
  S43064                     0.00       0.00       0.00       0.00       0.00       0.00       0.00        0.00     0.00   0.000
  S46993                     0.00       0.00       0.00       0.00       0.00       0.00       0.00        0.00     0.00   0.000
  S47131                     0.00       0.00       0.00       0.00       0.00       0.00       0.00        0.00     0.00   0.000
  S40632                     0.00       0.00       0.00       0.00       0.00       0.00       0.00        0.00     0.00   0.000
  S40642                     0.00       0.00       0.00       0.00       0.00       0.00       0.00        0.00     0.00   0.000
  S4241                      0.00       0.00       0.00       0.00       0.00       0.00       0.00        0.00     0.00   0.000
  S45043                     0.00       0.00       0.00       0.00       0.00       0.00       0.00        0.00     0.00   0.000
  S40611                     0.00       0.00       0.00       0.00       0.00       0.00       0.00        0.00     0.00   0.000
  S43295                     0.00       0.00       0.00       0.00       0.00       0.00       0.00        0.00     0.00   0.000
  S43213                     0.00       0.00       0.00       0.00       0.00       0.00       0.00        0.00     0.00   0.000
  S43191                     0.00       0.00       0.00       0.00       0.00       0.00       0.00        0.00     0.00   0.000
  S43192                     0.00       0.00       0.00       0.00       0.00       0.00       0.00        0.00     0.00   0.000
  S43193                     0.00       0.00       0.00       0.00       0.00       0.00       0.00        0.00     0.00   0.000
  S41662                     0.00       0.00       0.00       0.00       0.00       0.00       0.00        0.00     0.00   0.000
  S41663                     0.00       0.00       0.00       0.00       0.00       0.00       0.00        0.00     0.00   0.000
  S43001                     0.00       0.00       0.00       0.00       0.00       0.00       0.00        0.00     0.00   0.000
  S40643                     0.00       0.00       0.00       0.00       0.00       0.00       0.00        0.00     0.00   0.000
  S46994                     0.00       0.00       0.00       0.00       0.00       0.00       0.00        0.00     0.00   0.000
  S46995                     0.00       0.00       0.00       0.00       0.00       0.00       0.00        0.00     0.00   0.000
  S45292                     0.00       0.00       0.00       0.00       0.00       0.00       0.00        0.00     0.00   0.000
  S45323                     0.00       0.00       0.00       0.00       0.00       0.00       0.00        0.00     0.00   0.000
  S39902                     0.00       0.00       0.00       0.00       0.00       0.00       0.00        0.00     0.00   0.000
  S40053                     0.00       0.00       0.00       0.00       0.00       0.00       0.00        0.00     0.00   0.000
  S40054                     0.00       0.00       0.00       0.00       0.00       0.00       0.00        0.00     0.00   0.000
  S43002                     0.00       0.00       0.00       0.00       0.00       0.00       0.00        0.00     0.00   0.000
  S4689                      0.00       0.00       0.00       0.00       0.00       0.00       0.00        0.00     0.00   0.000
  S4687                      0.00       0.00       0.00       0.00       0.00       0.00       0.00        0.00     0.00   0.000
  S4688                      0.00       0.00       0.00       0.00       0.00       0.00       0.00        0.00     0.00   0.000
  S4343                      0.00       0.00       0.00       0.00       0.00       0.00       0.00        0.00     0.00   0.000
  S4313                      0.00       0.00       0.00       0.00       0.00       0.00       0.00        0.00     0.00   0.000
  S40644                     0.00       0.00       0.00       0.00       0.00       0.00       0.00        0.00     0.00   0.000
  S43101                     0.00       0.00       0.00       0.00       0.00       0.00       0.00        0.00     0.00   0.000
  S4695                      0.00       0.00       0.00       0.00       0.00       0.00       0.00        0.00     0.00   0.000
  S40612                     0.00       0.00       0.00       0.00       0.00       0.00       0.00        0.00     0.00   0.000
  S40802                     0.00       0.00       0.00       0.00       0.00       0.00       0.00        0.00     0.00   0.000
  S4694                      0.00       0.00       0.00       0.00       0.00       0.00       0.00        0.00     0.00   0.000
  S43102                     0.00       0.00       0.00       0.00       0.00       0.00       0.00        0.00     0.00   0.000
  S40803                     0.00       0.00       0.00       0.00       0.00       0.00       0.00        0.00     0.00   0.000
  S43503                     0.00       0.00       0.00       0.00       0.00       0.00       0.00        0.00     0.00   0.000
  S40712                     0.00       0.00       0.00       0.00       0.00       0.00       0.00        0.00     0.00   0.000
  S45352                     0.00       0.00       0.00       0.00       0.00       0.00       0.00        0.00     0.00   0.000
  S45362                     0.00       0.00       0.00       0.00       0.00       0.00       0.00        0.00     0.00   0.000
  S47132                     0.00       0.00       0.00       0.00       0.00       0.00       0.00        0.00     0.00   0.000
  S4297                      0.00       0.00       0.00       0.00       0.00       0.00       0.00        0.00     0.00   0.000
  S5032                      0.00       0.00       0.00       0.00       0.00       0.00       0.00        0.00     0.00   0.000
  S4296                      0.00       0.00       0.00       0.00       0.00       0.00       0.00        0.00     0.00   0.000
  S4298                      0.00       0.00       0.00       0.00       0.00       0.00       0.00        0.00     0.00   0.000
  S4683                      0.00       0.00       0.00       0.00       0.00       0.00       0.00        0.00     0.00   0.000
  S4295                      0.00       0.00       0.00       0.00       0.00       0.00       0.00        0.00     0.00   0.000
  S4743                      0.00       0.00       0.00       0.00       0.00       0.00       0.00        0.00     0.00   0.000
  S4742                      0.00       0.00       0.00       0.00       0.00       0.00       0.00        0.00     0.00   0.000
  S40812                     0.00       0.00       0.00       0.00       0.00       0.00       0.00        0.00     0.00   0.000
  S40422                     0.00       0.00       0.00       0.00       0.00       0.00       0.00        0.00     0.00   0.000
  S4277                      0.00       0.00       0.00       0.00       0.00       0.00       0.00        0.00     0.00   0.000
  S4664                      0.00       0.00       0.00       0.00       0.00       0.00       0.00        0.00     0.00   0.000
  S4635                      0.00       0.00       0.00       0.00       0.00       0.00       0.00        0.00     0.00   0.000
  S4644                      0.00       0.00       0.00       0.00       0.00       0.00       0.00        0.00     0.00   0.000
  S4282                      0.00       0.00       0.00       0.00       0.00       0.00       0.00        0.00     0.00   0.000
  
  
  ******************
  Node Depth Summary
  ******************
  
  ---------------------------------------------------------------------------------
                                 Average  Maximum  Maximum  Time of Max    Reported
                                   Depth    Depth      HGL   Occurrence   Max Depth
  Node                 Type         Feet     Feet     Feet  days hr:min        Feet
  ---------------------------------------------------------------------------------
  N_4178               JUNCTION  -nan(ind)     0.00   286.23     0  00:00        0.00
  N_4179               JUNCTION  -nan(ind)     0.00   285.98     0  00:00        0.00
  N_4181               JUNCTION  -nan(ind)     0.00   288.71     0  00:00        0.00
  N_4180               JUNCTION  -nan(ind)     0.00   287.46     0  00:00        0.00
  N_4182               JUNCTION  -nan(ind)     0.00   290.26     0  00:00        0.00
  N_4183               JUNCTION  -nan(ind)     0.00   287.99     0  00:00        0.00
  N_4185               JUNCTION  -nan(ind)     0.00   290.95     0  00:00        0.00
  N_4186               JUNCTION  -nan(ind)     0.00   292.24     0  00:00        0.00
  N_4187               JUNCTION  -nan(ind)     0.00   292.33     0  00:00        0.00
  N_4000               JUNCTION  -nan(ind)     0.00   292.05     0  00:00        0.00
  44                   JUNCTION  -nan(ind)     0.00   293.37     0  00:00        0.00
  N_4188               JUNCTION  -nan(ind)     0.00   292.54     0  00:00        0.00
  N_4521               JUNCTION  -nan(ind)     0.00   287.13     0  00:00        0.00
  N_4520               JUNCTION  -nan(ind)     0.00   286.88     0  00:00        0.00
  N_4522               JUNCTION  -nan(ind)     0.00   288.27     0  00:00        0.00
  N_4523               JUNCTION  -nan(ind)     0.00   288.08     0  00:00        0.00
  N_4524               JUNCTION  -nan(ind)     0.00   285.04     0  00:00        0.00
  N_4526               JUNCTION  -nan(ind)     0.00   285.76     0  00:00        0.00
  N_4525               JUNCTION  -nan(ind)     0.00   285.70     0  00:00        0.00
  N_4552               JUNCTION  -nan(ind)     0.00   288.86     0  00:00        0.00
  N_4551               JUNCTION  -nan(ind)     0.00   289.17     0  00:00        0.00
  N_4549               JUNCTION  -nan(ind)     0.00   286.72     0  00:00        0.00
  N_4553               JUNCTION  -nan(ind)     0.00   289.48     0  00:00        0.00
  N_4559               JUNCTION  -nan(ind)     0.00   285.77     0  00:00        0.00
  N_4554               JUNCTION  -nan(ind)     0.00   291.19     0  00:00        0.00
  N_4555               JUNCTION  -nan(ind)     0.00   291.27     0  00:00        0.00
  N_4558               JUNCTION  -nan(ind)     0.00   294.24     0  00:00        0.00
  N_4560               JUNCTION  -nan(ind)     0.00   292.53     0  00:00        0.00
  N_4563               JUNCTION  -nan(ind)     0.00   291.92     0  00:00        0.00
  N_4562               JUNCTION  -nan(ind)     0.00   291.50     0  00:00        0.00
  N_4561               JUNCTION  -nan(ind)     0.00   289.92     0  00:00        0.00
  N_4564               JUNCTION  -nan(ind)     0.00   293.56     0  00:00        0.00
  N_4565               JUNCTION  -nan(ind)     0.00   294.01     0  00:00        0.00
  N_4566               JUNCTION  -nan(ind)     0.00   295.81     0  00:00        0.00
  N_4961               JUNCTION  -nan(ind)     0.00   299.08     0  00:00        0.00
  N_4573               JUNCTION  -nan(ind)     0.00   296.01     0  00:00        0.00
  N_4575               JUNCTION  -nan(ind)     0.00   303.40     0  00:00        0.00
  465                  JUNCTION  -nan(ind)     0.00   304.42     0  00:00        0.00
  466                  JUNCTION  -nan(ind)     0.00   304.48     0  00:00        0.00
  467                  JUNCTION  -nan(ind)     0.00   307.69     0  00:00        0.00
  N_4177               JUNCTION  -nan(ind)     0.00   301.74     0  00:00        0.00
  N_4830               JUNCTION  -nan(ind)     0.00   291.65     0  00:00        0.00
  N_4829               JUNCTION  -nan(ind)     0.00   291.59     0  00:00        0.00
  N_4831               JUNCTION  -nan(ind)     0.00   294.00     0  00:00        0.00
  N_4833               JUNCTION  -nan(ind)     0.00   295.02     0  00:00        0.00
  N_4839               JUNCTION  -nan(ind)     0.00   296.78     0  00:00        0.00
  N_4842               JUNCTION  -nan(ind)     0.00   297.06     0  00:00        0.00
  N_4841               JUNCTION  -nan(ind)     0.00   297.31     0  00:00        0.00
  N_4840               JUNCTION  -nan(ind)     0.00   297.16     0  00:00        0.00
  502                  JUNCTION  -nan(ind)     0.00     0.00     0  00:00        0.00
  N_4844               JUNCTION  -nan(ind)     0.00   299.90     0  00:00        0.00
  N_4843               JUNCTION  -nan(ind)     0.00   299.69     0  00:00        0.00
  N_5109               JUNCTION  -nan(ind)     0.00   297.57     0  00:00        0.00
  N_4845               JUNCTION  -nan(ind)     0.00   301.92     0  00:00        0.00
  N_4846               JUNCTION  -nan(ind)     0.00   301.79     0  00:00        0.00
  N_4849               JUNCTION  -nan(ind)     0.00   301.00     0  00:00        0.00
  N_4847               JUNCTION  -nan(ind)     0.00   301.88     0  00:00        0.00
  536                  JUNCTION  -nan(ind)     0.00   296.20     0  00:00        0.00
  N_5107               JUNCTION  -nan(ind)     0.00   298.24     0  00:00        0.00
  N_4868               JUNCTION  -nan(ind)     0.00   300.00     0  00:00        0.00
  N_4869               JUNCTION  -nan(ind)     0.00   298.23     0  00:00        0.00
  N_4870               JUNCTION  -nan(ind)     0.00   302.46     0  00:00        0.00
  N_4877               JUNCTION  -nan(ind)     0.00   303.70     0  00:00        0.00
  N_4871               JUNCTION  -nan(ind)     0.00   303.68     0  00:00        0.00
  N_4875               JUNCTION  -nan(ind)     0.00   303.82     0  00:00        0.00
  N_5111               JUNCTION  -nan(ind)     0.00   303.10     0  00:00        0.00
  N_5110               JUNCTION  -nan(ind)     0.00   300.32     0  00:00        0.00
  N_4881               JUNCTION  -nan(ind)     0.00   302.10     0  00:00        0.00
  N_4882               JUNCTION  -nan(ind)     0.00   303.97     0  00:00        0.00
  N_4883               JUNCTION  -nan(ind)     0.00   305.26     0  00:00        0.00
  N_4884               JUNCTION  -nan(ind)     0.00   305.94     0  00:00        0.00
  N_4901               JUNCTION  -nan(ind)     0.00   307.41     0  00:00        0.00
  N_4890               JUNCTION  -nan(ind)     0.00   305.69     0  00:00        0.00
  N_4891               JUNCTION  -nan(ind)     0.00   306.15     0  00:00        0.00
  N_4902               JUNCTION  -nan(ind)     0.00   305.63     0  00:00        0.00
  N_5114               JUNCTION  -nan(ind)     0.00   306.00     0  00:00        0.00
  N_5077               JUNCTION  -nan(ind)     0.00   299.79     0  00:00        0.00
  N_5078               JUNCTION  -nan(ind)     0.00   299.45     0  00:00        0.00
  N_5080               JUNCTION  -nan(ind)     0.00   301.73     0  00:00        0.00
  N_5079               JUNCTION  -nan(ind)     0.00   301.68     0  00:00        0.00
  N_5081               JUNCTION  -nan(ind)     0.00   303.70     0  00:00        0.00
  N_4838               JUNCTION  -nan(ind)     0.00   303.75     0  00:00        0.00
  N_5086               JUNCTION  -nan(ind)     0.00   303.72     0  00:00        0.00
  N_5095               JUNCTION  -nan(ind)     0.00   302.99     0  00:00        0.00
  N_5096               JUNCTION  -nan(ind)     0.00   303.45     0  00:00        0.00
[...]
  529                     1.00   -nan(ind)  -nan(ind)  -nan(ind)  -nan(ind)  -nan(ind)  -nan(ind)  -nan(ind)  -nan(ind)  -nan(ind)
  533                     1.00   -nan(ind)  -nan(ind)  -nan(ind)  -nan(ind)  -nan(ind)  -nan(ind)  -nan(ind)  -nan(ind)  -nan(ind)
  534                     1.00   -nan(ind)  -nan(ind)  -nan(ind)  -nan(ind)  -nan(ind)  -nan(ind)  -nan(ind)  -nan(ind)  -nan(ind)
  536                     1.00   -nan(ind)  -nan(ind)  -nan(ind)  -nan(ind)  -nan(ind)  -nan(ind)  -nan(ind)  -nan(ind)  -nan(ind)
  537                     1.00   -nan(ind)  -nan(ind)  -nan(ind)  -nan(ind)  -nan(ind)  -nan(ind)  -nan(ind)  -nan(ind)  -nan(ind)
  538                     1.00   -nan(ind)  -nan(ind)  -nan(ind)  -nan(ind)  -nan(ind)  -nan(ind)  -nan(ind)  -nan(ind)  -nan(ind)
  539                    66.37   -nan(ind)  -nan(ind)  -nan(ind)  -nan(ind)  -nan(ind)  -nan(ind)  -nan(ind)  -nan(ind)  -nan(ind)
  540                     1.00   -nan(ind)  -nan(ind)  -nan(ind)  -nan(ind)  -nan(ind)  -nan(ind)  -nan(ind)  -nan(ind)  -nan(ind)
  541                     1.00   -nan(ind)  -nan(ind)  -nan(ind)  -nan(ind)  -nan(ind)  -nan(ind)  -nan(ind)  -nan(ind)  -nan(ind)
  542                     1.00   -nan(ind)  -nan(ind)  -nan(ind)  -nan(ind)  -nan(ind)  -nan(ind)  -nan(ind)  -nan(ind)  -nan(ind)
  543                     1.00   -nan(ind)  -nan(ind)  -nan(ind)  -nan(ind)  -nan(ind)  -nan(ind)  -nan(ind)  -nan(ind)  -nan(ind)
  544                     1.00   -nan(ind)  -nan(ind)  -nan(ind)  -nan(ind)  -nan(ind)  -nan(ind)  -nan(ind)  -nan(ind)  -nan(ind)
  545                     1.00   -nan(ind)  -nan(ind)  -nan(ind)  -nan(ind)  -nan(ind)  -nan(ind)  -nan(ind)  -nan(ind)  -nan(ind)
  546                     1.00   -nan(ind)  -nan(ind)  -nan(ind)  -nan(ind)  -nan(ind)  -nan(ind)  -nan(ind)  -nan(ind)  -nan(ind)
  547                     1.00   -nan(ind)  -nan(ind)  -nan(ind)  -nan(ind)  -nan(ind)  -nan(ind)  -nan(ind)  -nan(ind)  -nan(ind)
  548                     1.00   -nan(ind)  -nan(ind)  -nan(ind)  -nan(ind)  -nan(ind)  -nan(ind)  -nan(ind)  -nan(ind)  -nan(ind)
  549                     3.07   -nan(ind)  -nan(ind)  -nan(ind)  -nan(ind)  -nan(ind)  -nan(ind)  -nan(ind)  -nan(ind)  -nan(ind)
  550                     1.00   -nan(ind)  -nan(ind)  -nan(ind)  -nan(ind)  -nan(ind)  -nan(ind)  -nan(ind)  -nan(ind)  -nan(ind)
  551                     1.00   -nan(ind)  -nan(ind)  -nan(ind)  -nan(ind)  -nan(ind)  -nan(ind)  -nan(ind)  -nan(ind)  -nan(ind)
  L44581                  1.00   -nan(ind)  -nan(ind)  -nan(ind)  -nan(ind)  -nan(ind)  -nan(ind)  -nan(ind)  -nan(ind)  -nan(ind)
  L44572                  1.00   -nan(ind)  -nan(ind)  -nan(ind)  -nan(ind)  -nan(ind)  -nan(ind)  -nan(ind)  -nan(ind)  -nan(ind)
  L41273                  1.00   -nan(ind)  -nan(ind)  -nan(ind)  -nan(ind)  -nan(ind)  -nan(ind)  -nan(ind)  -nan(ind)  -nan(ind)
  L4125                   1.00   -nan(ind)  -nan(ind)  -nan(ind)  -nan(ind)  -nan(ind)  -nan(ind)  -nan(ind)  -nan(ind)  -nan(ind)
  L44562                  1.00   -nan(ind)  -nan(ind)  -nan(ind)  -nan(ind)  -nan(ind)  -nan(ind)  -nan(ind)  -nan(ind)  -nan(ind)
  L44582                  1.00   -nan(ind)  -nan(ind)  -nan(ind)  -nan(ind)  -nan(ind)  -nan(ind)  -nan(ind)  -nan(ind)  -nan(ind)
  L47731                  1.00   -nan(ind)  -nan(ind)  -nan(ind)  -nan(ind)  -nan(ind)  -nan(ind)  -nan(ind)  -nan(ind)  -nan(ind)
  L47721                  1.00   -nan(ind)  -nan(ind)  -nan(ind)  -nan(ind)  -nan(ind)  -nan(ind)  -nan(ind)  -nan(ind)  -nan(ind)
  L47722                  1.00   -nan(ind)  -nan(ind)  -nan(ind)  -nan(ind)  -nan(ind)  -nan(ind)  -nan(ind)  -nan(ind)  -nan(ind)
  L47732                  1.00   -nan(ind)  -nan(ind)  -nan(ind)  -nan(ind)  -nan(ind)  -nan(ind)  -nan(ind)  -nan(ind)  -nan(ind)
  L4774                   1.00   -nan(ind)  -nan(ind)  -nan(ind)  -nan(ind)  -nan(ind)  -nan(ind)  -nan(ind)  -nan(ind)  -nan(ind)
  L4775                   1.00   -nan(ind)  -nan(ind)  -nan(ind)  -nan(ind)  -nan(ind)  -nan(ind)  -nan(ind)  -nan(ind)  -nan(ind)
  L4440                   1.00   -nan(ind)  -nan(ind)  -nan(ind)  -nan(ind)  -nan(ind)  -nan(ind)  -nan(ind)  -nan(ind)  -nan(ind)
  L4439                   1.00   -nan(ind)  -nan(ind)  -nan(ind)  -nan(ind)  -nan(ind)  -nan(ind)  -nan(ind)  -nan(ind)  -nan(ind)
  L44381                  2.33   -nan(ind)  -nan(ind)  -nan(ind)  -nan(ind)  -nan(ind)  -nan(ind)  -nan(ind)  -nan(ind)  -nan(ind)
  L44382                  1.00   -nan(ind)  -nan(ind)  -nan(ind)  -nan(ind)  -nan(ind)  -nan(ind)  -nan(ind)  -nan(ind)  -nan(ind)
  L41092                  1.00   -nan(ind)  -nan(ind)  -nan(ind)  -nan(ind)  -nan(ind)  -nan(ind)  -nan(ind)  -nan(ind)  -nan(ind)
  L39604                  1.00   -nan(ind)  -nan(ind)  -nan(ind)  -nan(ind)  -nan(ind)  -nan(ind)  -nan(ind)  -nan(ind)  -nan(ind)
  L4108                   1.00   -nan(ind)  -nan(ind)  -nan(ind)  -nan(ind)  -nan(ind)  -nan(ind)  -nan(ind)  -nan(ind)  -nan(ind)
  L47661                  1.06   -nan(ind)  -nan(ind)  -nan(ind)  -nan(ind)  -nan(ind)  -nan(ind)  -nan(ind)  -nan(ind)  -nan(ind)
  L47662                  1.08   -nan(ind)  -nan(ind)  -nan(ind)  -nan(ind)  -nan(ind)  -nan(ind)  -nan(ind)  -nan(ind)  -nan(ind)
  L47671                  1.00   -nan(ind)  -nan(ind)  -nan(ind)  -nan(ind)  -nan(ind)  -nan(ind)  -nan(ind)  -nan(ind)  -nan(ind)
  L47672                  1.00   -nan(ind)  -nan(ind)  -nan(ind)  -nan(ind)  -nan(ind)  -nan(ind)  -nan(ind)  -nan(ind)  -nan(ind)
  L4769                   1.00   -nan(ind)  -nan(ind)  -nan(ind)  -nan(ind)  -nan(ind)  -nan(ind)  -nan(ind)  -nan(ind)  -nan(ind)
  L4768                   1.00   -nan(ind)  -nan(ind)  -nan(ind)  -nan(ind)  -nan(ind)  -nan(ind)  -nan(ind)  -nan(ind)  -nan(ind)
  L4436                   1.00   -nan(ind)  -nan(ind)  -nan(ind)  -nan(ind)  -nan(ind)  -nan(ind)  -nan(ind)  -nan(ind)  -nan(ind)
  L4435                   1.00   -nan(ind)  -nan(ind)  -nan(ind)  -nan(ind)  -nan(ind)  -nan(ind)  -nan(ind)  -nan(ind)  -nan(ind)
  L44341                  1.00   -nan(ind)  -nan(ind)  -nan(ind)  -nan(ind)  -nan(ind)  -nan(ind)  -nan(ind)  -nan(ind)  -nan(ind)
  L44331                  1.00   -nan(ind)  -nan(ind)  -nan(ind)  -nan(ind)  -nan(ind)  -nan(ind)  -nan(ind)  -nan(ind)  -nan(ind)
  L44332                  1.00   -nan(ind)  -nan(ind)  -nan(ind)  -nan(ind)  -nan(ind)  -nan(ind)  -nan(ind)  -nan(ind)  -nan(ind)
  L4453                   1.00   -nan(ind)  -nan(ind)  -nan(ind)  -nan(ind)  -nan(ind)  -nan(ind)  -nan(ind)  -nan(ind)  -nan(ind)
  L4452                   1.00   -nan(ind)  -nan(ind)  -nan(ind)  -nan(ind)  -nan(ind)  -nan(ind)  -nan(ind)  -nan(ind)  -nan(ind)
  L4451                   1.00   -nan(ind)  -nan(ind)  -nan(ind)  -nan(ind)  -nan(ind)  -nan(ind)  -nan(ind)  -nan(ind)  -nan(ind)
  L44501                  1.00   -nan(ind)  -nan(ind)  -nan(ind)  -nan(ind)  -nan(ind)  -nan(ind)  -nan(ind)  -nan(ind)  -nan(ind)
  L44502                  1.00   -nan(ind)  -nan(ind)  -nan(ind)  -nan(ind)  -nan(ind)  -nan(ind)  -nan(ind)  -nan(ind)  -nan(ind)
  L44491                  1.00   -nan(ind)  -nan(ind)  -nan(ind)  -nan(ind)  -nan(ind)  -nan(ind)  -nan(ind)  -nan(ind)  -nan(ind)
  L44492                  1.09   -nan(ind)  -nan(ind)  -nan(ind)  -nan(ind)  -nan(ind)  -nan(ind)  -nan(ind)  -nan(ind)  -nan(ind)
  L4466                   1.00   -nan(ind)  -nan(ind)  -nan(ind)  -nan(ind)  -nan(ind)  -nan(ind)  -nan(ind)  -nan(ind)  -nan(ind)
  L4465                   1.00   -nan(ind)  -nan(ind)  -nan(ind)  -nan(ind)  -nan(ind)  -nan(ind)  -nan(ind)  -nan(ind)  -nan(ind)
  L4464                   1.00   -nan(ind)  -nan(ind)  -nan(ind)  -nan(ind)  -nan(ind)  -nan(ind)  -nan(ind)  -nan(ind)  -nan(ind)
  L4463                   1.00   -nan(ind)  -nan(ind)  -nan(ind)  -nan(ind)  -nan(ind)  -nan(ind)  -nan(ind)  -nan(ind)  -nan(ind)
  L4462                   1.00   -nan(ind)  -nan(ind)  -nan(ind)  -nan(ind)  -nan(ind)  -nan(ind)  -nan(ind)  -nan(ind)  -nan(ind)
  L4461                   1.00   -nan(ind)  -nan(ind)  -nan(ind)  -nan(ind)  -nan(ind)  -nan(ind)  -nan(ind)  -nan(ind)  -nan(ind)
  L44601                  1.00   -nan(ind)  -nan(ind)  -nan(ind)  -nan(ind)  -nan(ind)  -nan(ind)  -nan(ind)  -nan(ind)  -nan(ind)
  L44602                  1.00   -nan(ind)  -nan(ind)  -nan(ind)  -nan(ind)  -nan(ind)  -nan(ind)  -nan(ind)  -nan(ind)  -nan(ind)
  L44603                  1.00   -nan(ind)  -nan(ind)  -nan(ind)  -nan(ind)  -nan(ind)  -nan(ind)  -nan(ind)  -nan(ind)  -nan(ind)
  L44593                  1.00   -nan(ind)  -nan(ind)  -nan(ind)  -nan(ind)  -nan(ind)  -nan(ind)  -nan(ind)  -nan(ind)  -nan(ind)
  L41073                  1.00   -nan(ind)  -nan(ind)  -nan(ind)  -nan(ind)  -nan(ind)  -nan(ind)  -nan(ind)  -nan(ind)  -nan(ind)
  L44342                  1.00   -nan(ind)  -nan(ind)  -nan(ind)  -nan(ind)  -nan(ind)  -nan(ind)  -nan(ind)  -nan(ind)  -nan(ind)
  L4585                   1.00   -nan(ind)  -nan(ind)  -nan(ind)  -nan(ind)  -nan(ind)  -nan(ind)  -nan(ind)  -nan(ind)  -nan(ind)
  L4969                   1.00   -nan(ind)  -nan(ind)  -nan(ind)  -nan(ind)  -nan(ind)  -nan(ind)  -nan(ind)  -nan(ind)  -nan(ind)
  L40381                  1.00   -nan(ind)  -nan(ind)  -nan(ind)  -nan(ind)  -nan(ind)  -nan(ind)  -nan(ind)  -nan(ind)  -nan(ind)
  L4037                   1.00   -nan(ind)  -nan(ind)  -nan(ind)  -nan(ind)  -nan(ind)  -nan(ind)  -nan(ind)  -nan(ind)  -nan(ind)
  L4032                   1.00   -nan(ind)  -nan(ind)  -nan(ind)  -nan(ind)  -nan(ind)  -nan(ind)  -nan(ind)  -nan(ind)  -nan(ind)
  L4031                   1.00   -nan(ind)  -nan(ind)  -nan(ind)  -nan(ind)  -nan(ind)  -nan(ind)  -nan(ind)  -nan(ind)  -nan(ind)
  L4029                   1.00   -nan(ind)  -nan(ind)  -nan(ind)  -nan(ind)  -nan(ind)  -nan(ind)  -nan(ind)  -nan(ind)  -nan(ind)
  L40302                  1.00   -nan(ind)  -nan(ind)  -nan(ind)  -nan(ind)  -nan(ind)  -nan(ind)  -nan(ind)  -nan(ind)  -nan(ind)
  L4027                   1.00   -nan(ind)  -nan(ind)  -nan(ind)  -nan(ind)  -nan(ind)  -nan(ind)  -nan(ind)  -nan(ind)  -nan(ind)
  L4026                   1.00   -nan(ind)  -nan(ind)  -nan(ind)  -nan(ind)  -nan(ind)  -nan(ind)  -nan(ind)  -nan(ind)  -nan(ind)
  L4025                   1.00   -nan(ind)  -nan(ind)  -nan(ind)  -nan(ind)  -nan(ind)  -nan(ind)  -nan(ind)  -nan(ind)  -nan(ind)
  L4024                   1.00   -nan(ind)  -nan(ind)  -nan(ind)  -nan(ind)  -nan(ind)  -nan(ind)  -nan(ind)  -nan(ind)  -nan(ind)
  L4023                   1.00   -nan(ind)  -nan(ind)  -nan(ind)  -nan(ind)  -nan(ind)  -nan(ind)  -nan(ind)  -nan(ind)  -nan(ind)
  L4022                   1.00   -nan(ind)  -nan(ind)  -nan(ind)  -nan(ind)  -nan(ind)  -nan(ind)  -nan(ind)  -nan(ind)  -nan(ind)
  L4020                   1.00   -nan(ind)  -nan(ind)  -nan(ind)  -nan(ind)  -nan(ind)  -nan(ind)  -nan(ind)  -nan(ind)  -nan(ind)
  L40212                  1.00   -nan(ind)  -nan(ind)  -nan(ind)  -nan(ind)  -nan(ind)  -nan(ind)  -nan(ind)  -nan(ind)  -nan(ind)
  L4018                   1.00   -nan(ind)  -nan(ind)  -nan(ind)  -nan(ind)  -nan(ind)  -nan(ind)  -nan(ind)  -nan(ind)  -nan(ind)
  L40175                  1.00   -nan(ind)  -nan(ind)  -nan(ind)  -nan(ind)  -nan(ind)  -nan(ind)  -nan(ind)  -nan(ind)  -nan(ind)
  L4254                   1.00   -nan(ind)  -nan(ind)  -nan(ind)  -nan(ind)  -nan(ind)  -nan(ind)  -nan(ind)  -nan(ind)  -nan(ind)
  L4617                   1.00   -nan(ind)  -nan(ind)  -nan(ind)  -nan(ind)  -nan(ind)  -nan(ind)  -nan(ind)  -nan(ind)  -nan(ind)
  L40382                  1.00   -nan(ind)  -nan(ind)  -nan(ind)  -nan(ind)  -nan(ind)  -nan(ind)  -nan(ind)  -nan(ind)  -nan(ind)
  L46162                  5.54   -nan(ind)  -nan(ind)  -nan(ind)  -nan(ind)  -nan(ind)  -nan(ind)  -nan(ind)  -nan(ind)  -nan(ind)
  L5161                   1.00   -nan(ind)  -nan(ind)  -nan(ind)  -nan(ind)  -nan(ind)  -nan(ind)  -nan(ind)  -nan(ind)  -nan(ind)
  L49952                 12.70   -nan(ind)  -nan(ind)  -nan(ind)  -nan(ind)  -nan(ind)  -nan(ind)  -nan(ind)  -nan(ind)  -nan(ind)
  L42582                  1.00   -nan(ind)  -nan(ind)  -nan(ind)  -nan(ind)  -nan(ind)  -nan(ind)  -nan(ind)  -nan(ind)  -nan(ind)
  L4262                   1.00   -nan(ind)  -nan(ind)  -nan(ind)  -nan(ind)  -nan(ind)  -nan(ind)  -nan(ind)  -nan(ind)  -nan(ind)
  L4263                   1.00   -nan(ind)  -nan(ind)  -nan(ind)  -nan(ind)  -nan(ind)  -nan(ind)  -nan(ind)  -nan(ind)  -nan(ind)
  L4034                   1.00   -nan(ind)  -nan(ind)  -nan(ind)  -nan(ind)  -nan(ind)  -nan(ind)  -nan(ind)  -nan(ind)  -nan(ind)
  L4256                   1.00   -nan(ind)  -nan(ind)  -nan(ind)  -nan(ind)  -nan(ind)  -nan(ind)  -nan(ind)  -nan(ind)  -nan(ind)
  L4997                   1.00   -nan(ind)  -nan(ind)  -nan(ind)  -nan(ind)  -nan(ind)  -nan(ind)  -nan(ind)  -nan(ind)  -nan(ind)
  L4998                   1.00   -nan(ind)  -nan(ind)  -nan(ind)  -nan(ind)  -nan(ind)  -nan(ind)  -nan(ind)  -nan(ind)  -nan(ind)
  L4999                   1.00   -nan(ind)  -nan(ind)  -nan(ind)  -nan(ind)  -nan(ind)  -nan(ind)  -nan(ind)  -nan(ind)  -nan(ind)
  L42663                  1.00   -nan(ind)  -nan(ind)  -nan(ind)  -nan(ind)  -nan(ind)  -nan(ind)  -nan(ind)  -nan(ind)  -nan(ind)
  L4620                   1.00   -nan(ind)  -nan(ind)  -nan(ind)  -nan(ind)  -nan(ind)  -nan(ind)  -nan(ind)  -nan(ind)  -nan(ind)
  L4610                   1.00   -nan(ind)  -nan(ind)  -nan(ind)  -nan(ind)  -nan(ind)  -nan(ind)  -nan(ind)  -nan(ind)  -nan(ind)
  L4608                   1.00   -nan(ind)  -nan(ind)  -nan(ind)  -nan(ind)  -nan(ind)  -nan(ind)  -nan(ind)  -nan(ind)  -nan(ind)
  L4609                   1.00   -nan(ind)  -nan(ind)  -nan(ind)  -nan(ind)  -nan(ind)  -nan(ind)  -nan(ind)  -nan(ind)  -nan(ind)
  L4606                   1.00   -nan(ind)  -nan(ind)  -nan(ind)  -nan(ind)  -nan(ind)  -nan(ind)  -nan(ind)  -nan(ind)  -nan(ind)
  L4243                   1.70   -nan(ind)  -nan(ind)  -nan(ind)  -nan(ind)  -nan(ind)  -nan(ind)  -nan(ind)  -nan(ind)  -nan(ind)
  L42421                  1.00   -nan(ind)  -nan(ind)  -nan(ind)  -nan(ind)  -nan(ind)  -nan(ind)  -nan(ind)  -nan(ind)  -nan(ind)
  L42422                  1.00   -nan(ind)  -nan(ind)  -nan(ind)  -nan(ind)  -nan(ind)  -nan(ind)  -nan(ind)  -nan(ind)  -nan(ind)
  L5195                   1.43   -nan(ind)  -nan(ind)  -nan(ind)  -nan(ind)  -nan(ind)  -nan(ind)  -nan(ind)  -nan(ind)  -nan(ind)
  L5194                   1.00   -nan(ind)  -nan(ind)  -nan(ind)  -nan(ind)  -nan(ind)  -nan(ind)  -nan(ind)  -nan(ind)  -nan(ind)
  L5208                   1.00   -nan(ind)  -nan(ind)  -nan(ind)  -nan(ind)  -nan(ind)  -nan(ind)  -nan(ind)  -nan(ind)  -nan(ind)
  L51921                  1.00   -nan(ind)  -nan(ind)  -nan(ind)  -nan(ind)  -nan(ind)  -nan(ind)  -nan(ind)  -nan(ind)  -nan(ind)
  L51922                  1.00   -nan(ind)  -nan(ind)  -nan(ind)  -nan(ind)  -nan(ind)  -nan(ind)  -nan(ind)  -nan(ind)  -nan(ind)
  L52092                  1.00   -nan(ind)  -nan(ind)  -nan(ind)  -nan(ind)  -nan(ind)  -nan(ind)  -nan(ind)  -nan(ind)  -nan(ind)
  L49912                  1.00   -nan(ind)  -nan(ind)  -nan(ind)  -nan(ind)  -nan(ind)  -nan(ind)  -nan(ind)  -nan(ind)  -nan(ind)
  L52182                  1.00   -nan(ind)  -nan(ind)  -nan(ind)  -nan(ind)  -nan(ind)  -nan(ind)  -nan(ind)  -nan(ind)  -nan(ind)
  L49891                  1.00   -nan(ind)  -nan(ind)  -nan(ind)  -nan(ind)  -nan(ind)  -nan(ind)  -nan(ind)  -nan(ind)  -nan(ind)
  L49892                  2.85   -nan(ind)  -nan(ind)  -nan(ind)  -nan(ind)  -nan(ind)  -nan(ind)  -nan(ind)  -nan(ind)  -nan(ind)
  L4598                   1.00   -nan(ind)  -nan(ind)  -nan(ind)  -nan(ind)  -nan(ind)  -nan(ind)  -nan(ind)  -nan(ind)  -nan(ind)
  L49842                  2.38   -nan(ind)  -nan(ind)  -nan(ind)  -nan(ind)  -nan(ind)  -nan(ind)  -nan(ind)  -nan(ind)  -nan(ind)
  L49861                  4.97   -nan(ind)  -nan(ind)  -nan(ind)  -nan(ind)  -nan(ind)  -nan(ind)  -nan(ind)  -nan(ind)  -nan(ind)
  L5199                   1.00   -nan(ind)  -nan(ind)  -nan(ind)  -nan(ind)  -nan(ind)  -nan(ind)  -nan(ind)  -nan(ind)  -nan(ind)
  L51561                  1.00   -nan(ind)  -nan(ind)  -nan(ind)  -nan(ind)  -nan(ind)  -nan(ind)  -nan(ind)  -nan(ind)  -nan(ind)
  L5197                   1.00   -nan(ind)  -nan(ind)  -nan(ind)  -nan(ind)  -nan(ind)  -nan(ind)  -nan(ind)  -nan(ind)  -nan(ind)
  L5215                   1.00   -nan(ind)  -nan(ind)  -nan(ind)  -nan(ind)  -nan(ind)  -nan(ind)  -nan(ind)  -nan(ind)  -nan(ind)
  L51562                  1.00   -nan(ind)  -nan(ind)  -nan(ind)  -nan(ind)  -nan(ind)  -nan(ind)  -nan(ind)  -nan(ind)  -nan(ind)
  L5186                   1.00   -nan(ind)  -nan(ind)  -nan(ind)  -nan(ind)  -nan(ind)  -nan(ind)  -nan(ind)  -nan(ind)  -nan(ind)
  L5183                   1.00   -nan(ind)  -nan(ind)  -nan(ind)  -nan(ind)  -nan(ind)  -nan(ind)  -nan(ind)  -nan(ind)  -nan(ind)
  L5184                   1.00   -nan(ind)  -nan(ind)  -nan(ind)  -nan(ind)  -nan(ind)  -nan(ind)  -nan(ind)  -nan(ind)  -nan(ind)
  L52141                  1.00   -nan(ind)  -nan(ind)  -nan(ind)  -nan(ind)  -nan(ind)  -nan(ind)  -nan(ind)  -nan(ind)  -nan(ind)
  L52142                  1.00   -nan(ind)  -nan(ind)  -nan(ind)  -nan(ind)  -nan(ind)  -nan(ind)  -nan(ind)  -nan(ind)  -nan(ind)
  L5213                   1.00   -nan(ind)  -nan(ind)  -nan(ind)  -nan(ind)  -nan(ind)  -nan(ind)  -nan(ind)  -nan(ind)  -nan(ind)
  L49862                  1.16   -nan(ind)  -nan(ind)  -nan(ind)  -nan(ind)  -nan(ind)  -nan(ind)  -nan(ind)  -nan(ind)  -nan(ind)
  L4985                   1.00   -nan(ind)  -nan(ind)  -nan(ind)  -nan(ind)  -nan(ind)  -nan(ind)  -nan(ind)  -nan(ind)  -nan(ind)
  L45974                  1.00   -nan(ind)  -nan(ind)  -nan(ind)  -nan(ind)  -nan(ind)  -nan(ind)  -nan(ind)  -nan(ind)  -nan(ind)
  L4059                   1.00   -nan(ind)  -nan(ind)  -nan(ind)  -nan(ind)  -nan(ind)  -nan(ind)  -nan(ind)  -nan(ind)  -nan(ind)
  L4058                   1.00   -nan(ind)  -nan(ind)  -nan(ind)  -nan(ind)  -nan(ind)  -nan(ind)  -nan(ind)  -nan(ind)  -nan(ind)
  L4057                   1.00   -nan(ind)  -nan(ind)  -nan(ind)  -nan(ind)  -nan(ind)  -nan(ind)  -nan(ind)  -nan(ind)  -nan(ind)
  L4056                   2.01   -nan(ind)  -nan(ind)  -nan(ind)  -nan(ind)  -nan(ind)  -nan(ind)  -nan(ind)  -nan(ind)  -nan(ind)
  L4096                   1.00   -nan(ind)  -nan(ind)  -nan(ind)  -nan(ind)  -nan(ind)  -nan(ind)  -nan(ind)  -nan(ind)  -nan(ind)
  L4095                   1.00   -nan(ind)  -nan(ind)  -nan(ind)  -nan(ind)  -nan(ind)  -nan(ind)  -nan(ind)  -nan(ind)  -nan(ind)
  L4094                   1.23   -nan(ind)  -nan(ind)  -nan(ind)  -nan(ind)  -nan(ind)  -nan(ind)  -nan(ind)  -nan(ind)  -nan(ind)
  L4054                   1.00   -nan(ind)  -nan(ind)  -nan(ind)  -nan(ind)  -nan(ind)  -nan(ind)  -nan(ind)  -nan(ind)  -nan(ind)
  L4053                   2.46   -nan(ind)  -nan(ind)  -nan(ind)  -nan(ind)  -nan(ind)  -nan(ind)  -nan(ind)  -nan(ind)  -nan(ind)
  L5143                   1.00   -nan(ind)  -nan(ind)  -nan(ind)  -nan(ind)  -nan(ind)  -nan(ind)  -nan(ind)  -nan(ind)  -nan(ind)
  L49782                  1.00   -nan(ind)  -nan(ind)  -nan(ind)  -nan(ind)  -nan(ind)  -nan(ind)  -nan(ind)  -nan(ind)  -nan(ind)
  2                       1.00   -nan(ind)  -nan(ind)  -nan(ind)  -nan(ind)  -nan(ind)  -nan(ind)  -nan(ind)  -nan(ind)  -nan(ind)
  3                       1.00   -nan(ind)  -nan(ind)  -nan(ind)  -nan(ind)  -nan(ind)  -nan(ind)  -nan(ind)  -nan(ind)  -nan(ind)
  4                       1.00   -nan(ind)  -nan(ind)  -nan(ind)  -nan(ind)  -nan(ind)  -nan(ind)  -nan(ind)  -nan(ind)  -nan(ind)
  
  
  *************************
  Conduit Surcharge Summary
  *************************
  
  No conduits were surcharged.
  

  Analysis begun on:  Sat Nov 30 08:10:49 2019
  Analysis ended on:  Sat Nov 30 08:10:49 2019
  Total elapsed time: < 1 sec