
  EPA STORM WATER MANAGEMENT MODEL - VERSION 5.1 (Build 5.1.013)
  --------------------------------------------------------------

  WARNING 03: negative offset ignored for Link 552
  WARNING 03: negative offset ignored for Link L4876
  WARNING 03: negative offset ignored for Link L46981
  WARNING 03: negative offset ignored for Link L43352
  WARNING 04: minimum elevation drop used for Conduit 2126
  WARNING 03: negative offset ignored for Link L4920
  WARNING 03: negative offset ignored for Link L4920
  WARNING 03: negative offset ignored for Link L4490
  WARNING 03: negative offset ignored for Link L5043
  WARNING 03: negative offset ignored for Link L49401
  WARNING 03: negative offset ignored for Link L41621
  WARNING 03: negative offset ignored for Link L3982
  WARNING 03: negative offset ignored for Link L4996
  WARNING 03: negative offset ignored for Link L3931
  WARNING 03: negative offset ignored for Link L3930
  WARNING 03: negative offset ignored for Link L4887
  WARNING 03: negative offset ignored for Link 5184
  WARNING 03: negative offset ignored for Link 5189
  WARNING 03: negative offset ignored for Link L4921
  WARNING 04: minimum elevation drop used for Conduit L4921
  WARNING 03: negative offset ignored for Link L4919
  WARNING 03: negative offset ignored for Link L4007
  WARNING 04: minimum elevation drop used for Conduit 5886
  WARNING 04: minimum elevation drop used for Conduit L39872
  WARNING 03: negative offset ignored for Link L5126
  WARNING 03: negative offset ignored for Link L3981
  WARNING 03: negative offset ignored for Link L49932
  WARNING 03: negative offset ignored for Link L4983
  WARNING 04: minimum elevation drop used for Conduit L4983
  WARNING 03: negative offset ignored for Link L4035
  WARNING 03: negative offset ignored for Link L45841
  WARNING 03: negative offset ignored for Link L4297
  WARNING 03: negative offset ignored for Link L47072
  WARNING 03: negative offset ignored for Link L47072
  WARNING 03: negative offset ignored for Link L45423
  WARNING 08: elevation drop exceeds length for Conduit L39911
  WARNING 08: elevation drop exceeds length for Conduit L39962
  WARNING 03: negative offset ignored for Link L48212
  WARNING 04: minimum elevation drop used for Conduit L48212
  WARNING 03: negative offset ignored for Link L4800
  WARNING 03: negative offset ignored for Link L4799
  WARNING 04: minimum elevation drop used for Conduit 172
  WARNING 08: elevation drop exceeds length for Conduit 180
  WARNING 04: minimum elevation drop used for Conduit 181
  WARNING 03: negative offset ignored for Link L4196
  WARNING 03: negative offset ignored for Link L4636
  WARNING 04: minimum elevation drop used for Conduit L4636
  WARNING 03: negative offset ignored for Link L40421
  WARNING 03: negative offset ignored for Link L5015
  WARNING 03: negative offset ignored for Link L5014
  WARNING 03: negative offset ignored for Link L5014
  WARNING 03: negative offset ignored for Link L5013
  WARNING 04: minimum elevation drop used for Conduit L4275
  WARNING 03: negative offset ignored for Link L4009
  WARNING 08: elevation drop exceeds length for Conduit 410
  WARNING 03: negative offset ignored for Link L5089
  WARNING 03: negative offset ignored for Link 508
  WARNING 04: minimum elevation drop used for Conduit 446
  WARNING 04: minimum elevation drop used for Conduit 451
  WARNING 04: minimum elevation drop used for Conduit 470
  WARNING 04: minimum elevation drop used for Conduit 483
  WARNING 04: minimum elevation drop used for Conduit 490
  WARNING 04: minimum elevation drop used for Conduit 507
  WARNING 03: negative offset ignored for Link 533
  WARNING 08: elevation drop exceeds length for Conduit 539
  WARNING 04: minimum elevation drop used for Conduit 541
  WARNING 08: elevation drop exceeds length for Conduit 549
  WARNING 03: negative offset ignored for Link L4585
  WARNING 03: negative offset ignored for Link L4997
  WARNING 02: maximum depth increased for Node N_4566
  WARNING 02: maximum depth increased for Node N_4177
  WARNING 02: maximum depth increased for Node N_4909
  WARNING 02: maximum depth increased for Node N_4005
  WARNING 02: maximum depth increased for Node N_4723
  WARNING 02: maximum depth increased for Node N_4486
  WARNING 02: maximum depth increased for Node N_4802
  WARNING 02: maximum depth increased for Node N_5101
  WARNING 02: maximum depth increased for Node N_5087
  WARNING 02: maximum depth increased for Node N_5082
  WARNING 02: maximum depth increased for Node N_4781
  WARNING 02: maximum depth increased for Node N_5206
  WARNING 02: maximum depth increased for Node N_5204
  WARNING 02: maximum depth increased for Node N_4550
  WARNING 02: maximum depth increased for Node N_3939
  WARNING 02: maximum depth increased for Node N_3980
  WARNING 02: maximum depth increased for Node N_3936
  WARNING 02: maximum depth increased for Node N_3930
  WARNING 02: maximum depth increased for Node N_3927
  WARNING 02: maximum depth increased for Node N_3922
  WARNING 02: maximum depth increased for Node N_3921
  WARNING 02: maximum depth increased for Node 5147
  WARNING 02: maximum depth increased for Node N_4854
  WARNING 02: maximum depth increased for Node N_4002
  WARNING 02: maximum depth increased for Node N_4932
  WARNING 02: maximum depth increased for Node N_4795
  WARNING 02: maximum depth increased for Node N_5043
  WARNING 02: maximum depth increased for Node N_3941
  WARNING 02: maximum depth increased for Node N_4819
  WARNING 02: maximum depth increased for Node 6198
  WARNING 02: maximum depth increased for Node N_4809
  WARNING 02: maximum depth increased for Node N_5062
  WARNING 02: maximum depth increased for Node N_4807
  WARNING 02: maximum depth increased for Node N_4021
  WARNING 02: maximum depth increased for Node N_4039
  WARNING 02: maximum depth increased for Node N_4614
  WARNING 02: maximum depth increased for Node N_4260
  WARNING 02: maximum depth increased for Node N_4261
  WARNING 02: maximum depth increased for Node N_4262
  WARNING 02: maximum depth increased for Node N_4265
  WARNING 02: maximum depth increased for Node N_4266
  WARNING 02: maximum depth increased for Node N_5192
  WARNING 02: maximum depth increased for Node N_4202
  WARNING 02: maximum depth increased for Node N_4590
  WARNING 02: maximum depth increased for Node N_5218
  WARNING 02: maximum depth increased for Node N_5217
  WARNING 02: maximum depth increased for Node N_4585
  WARNING 02: maximum depth increased for Node N_4248
  WARNING 02: maximum depth increased for Node 55
  WARNING 02: maximum depth increased for Node 60
  WARNING 02: maximum depth increased for Node N_4640
  WARNING 02: maximum depth increased for Node N_4268
  WARNING 02: maximum depth increased for Node N_4270
  WARNING 02: maximum depth increased for Node N_4513
  WARNING 02: maximum depth increased for Node N_4623
  WARNING 02: maximum depth increased for Node N_4624
  WARNING 02: maximum depth increased for Node N_4234
  WARNING 02: maximum depth increased for Node N_4569
  WARNING 02: maximum depth increased for Node 609
  WARNING 02: maximum depth increased for Node 610
  WARNING 02: maximum depth increased for Node N_4461
  WARNING 02: maximum depth increased for Node N_4029
  WARNING 02: maximum depth increased for Node N_4028
  WARNING 02: maximum depth increased for Node N_4027
  WARNING 02: maximum depth increased for Node N_4026
  WARNING 02: maximum depth increased for Node N_4025
  WARNING 02: maximum depth increased for Node N_4024
  WARNING 02: maximum depth increased for Node N_4023
  WARNING 02: maximum depth increased for Node N_4022
  WARNING 02: maximum depth increased for Node N_5194
  WARNING 02: maximum depth increased for Node N_5193
  WARNING 02: maximum depth increased for Node N_5208
  WARNING 02: maximum depth increased for Node N_5153
  WARNING 02: maximum depth increased for Node N_5158
  WARNING 02: maximum depth increased for Node N_5214
  WARNING 02: maximum depth increased for Node 2
  
  *********************************************************
  NOTE: The summary statistics displayed in this report are
  based on results found at every computational time step,  
  not just on results from each reporting time step.
  *********************************************************
  
  ****************
  Analysis Options
  ****************
  Flow Units ............... CFS
  Process Models:
    Rainfall/Runoff ........ YES
    RDII ................... NO
    Snowmelt ............... NO
    Groundwater ............ NO
    Flow Routing ........... YES
    Ponding Allowed ........ NO
    Water Quality .......... NO
  Infiltration Method ...... GREEN_AMPT
  Flow Routing Method ...... DYNWAVE
  Surcharge Method ......... EXTRAN
  Starting Date ............ 01/14/2010 00:00:00
  Ending Date .............. 01/15/2010 00:00:00
  Antecedent Dry Days ...... 0.0
  Report Time Step ......... 00:06:00
  Wet Time Step ............ 00:06:00
  Dry Time Step ............ 01:00:00
  Routing Time Step ........ 0.75 sec
  Variable Time Step ....... YES
  Maximum Trials ........... 8
  Number of Threads ........ 1
  Head Tolerance ........... 0.005000 ft
  
  
  **************************        Volume         Depth
  Runoff Quantity Continuity     acre-feet        inches
  **************************     ---------       -------
  Total Precipitation ......        94.019         0.651
  Evaporation Loss .........         0.000         0.000
  Infiltration Loss ........        73.758         0.510
  Surface Runoff ...........        17.596         0.122
  Final Storage ............         2.793         0.019
  Continuity Error (%) .....        -0.136
  
  
  **************************        Volume        Volume
  Flow Routing Continuity        acre-feet      10^6 gal
  **************************     ---------     ---------
  Dry Weather Inflow .......         0.000         0.000
  Wet Weather Inflow .......        17.595         5.734
  Groundwater Inflow .......         0.000         0.000
  RDII Inflow ..............         0.000         0.000
  External Inflow ..........         0.000         0.000
  External Outflow .........        12.244         3.990
  Flooding Loss ............         3.237         1.055
  Evaporation Loss .........         0.000         0.000
  Exfiltration Loss ........         0.246         0.080
  Initial Stored Volume ....         0.001         0.000
  Final Stored Volume ......         1.734         0.565
  Continuity Error (%) .....         0.769
  
  
  *************************
  Highest Continuity Errors
  *************************
  Node N_4003 (100.00%)
  Node N_4725 (99.73%)
  Node N_4818 (73.22%)
  Node N_4508 (56.73%)
  Node N_4817 (25.35%)
  
  
  ***************************
  Time-Step Critical Elements
  ***************************
  Link L4942 (1.01%)
  
  
  ********************************
  Highest Flow Instability Indexes
  ********************************
  Link L4817 (3)
  Link L4332 (1)
  Link L4244 (1)
  Link L40172 (1)
  
  
  *************************
  Routing Time Step Summary
  *************************
  Minimum Time Step           :     0.09 sec
  Average Time Step           :     0.75 sec
  Maximum Time Step           :     0.75 sec
  Percent in Steady State     :     0.00
  Average Iterations per Step :     2.05
  Percent Not Converging      :     0.58
  
  
  ***************************
  Subcatchment Runoff Summary
  ***************************
  
  ------------------------------------------------------------------------------------------------------------------------------
                            Total      Total      Total      Total     Imperv       Perv      Total       Total     Peak  Runoff
                           Precip      Runon       Evap      Infil     Runoff     Runoff     Runoff      Runoff   Runoff   Coeff
  Subcatchment                 in         in         in         in         in         in         in    10^6 gal      CFS
  ------------------------------------------------------------------------------------------------------------------------------
  S40891                     0.65       0.00       0.00       0.30       0.41       0.00       0.31        0.06     4.08   0.473
  S45321                     0.65       0.00       0.00       0.38       0.31       0.00       0.23        0.24     3.48   0.356
  S3992                      0.65       0.00       0.00       0.16       0.56       0.02       0.44        0.03     1.55   0.677
  S4182                      0.65       0.00       0.00       0.24       0.48       0.00       0.36        0.02     1.16   0.548
  S39991                     0.65       0.00       0.00       0.60       0.06       0.00       0.04        0.01     0.42   0.065
  S39992                     0.65       0.00       0.00       0.50       0.17       0.00       0.13        0.01     0.55   0.199
  S4172                      0.65       0.00       0.00       0.38       0.31       0.00       0.23        0.05     2.58   0.356
  S4165                      0.65       0.00       0.00       0.47       0.21       0.00       0.16        0.07     3.65   0.239
  S3995                      0.65       0.00       0.00       0.52       0.15       0.00       0.11        0.00     0.20   0.175
  S3997                      0.65       0.00       0.00       0.42       0.26       0.00       0.20        0.01     0.67   0.304
  S4174                      0.65       0.00       0.00       0.48       0.20       0.00       0.15        0.01     0.81   0.233
  S4171                      0.65       0.00       0.00       0.45       0.24       0.00       0.18        0.07     3.45   0.271
  S41701                     0.65       0.00       0.00       0.43       0.26       0.00       0.19        0.01     0.38   0.295
  S41681                     0.65       0.00       0.00       0.55       0.11       0.00       0.08        0.00     0.13   0.130
  S41661                     0.65       0.00       0.00       0.51       0.16       0.00       0.12        0.01     0.70   0.188
  S4556                      0.65       0.00       0.00       0.49       0.19       0.00       0.14        0.01     0.66   0.219
  S41702                     0.65       0.00       0.00       0.48       0.20       0.00       0.15        0.03     1.71   0.229
  S45351                     0.65       0.00       0.00       0.28       0.42       0.00       0.32        0.01     0.74   0.485
  S4533                      0.65       0.00       0.00       0.26       0.45       0.00       0.33        0.01     0.71   0.515
  S5108                      0.65       0.00       0.00       0.29       0.41       0.00       0.31        0.01     0.46   0.471
  S45361                     0.65       0.00       0.00       0.35       0.35       0.00       0.26        0.02     1.25   0.406
  S39901                     0.65       0.00       0.00       0.37       0.33       0.00       0.25        0.04     2.31   0.382
  S45311                     0.65       0.00       0.00       0.36       0.34       0.00       0.26        0.02     1.09   0.395
  S41682                     0.65       0.00       0.00       0.35       0.35       0.00       0.26        0.02     1.29   0.398
  S41683                     0.65       0.00       0.00       0.55       0.12       0.00       0.09        0.01     0.84   0.133
  S4527                      0.65       0.00       0.00       0.56       0.11       0.00       0.08        0.00     0.13   0.126
  S4528                      0.65       0.00       0.00       0.40       0.29       0.00       0.21        0.02     1.51   0.330
  S45322                     0.65       0.00       0.00       0.33       0.38       0.00       0.28        0.02     1.02   0.435
  S45312                     0.65       0.00       0.00       0.38       0.32       0.00       0.24        0.01     0.48   0.363
  S4835                      0.65       0.00       0.00       0.59       0.07       0.00       0.05        0.01     0.38   0.080
  S4851                      0.65       0.00       0.00       0.38       0.32       0.00       0.24        0.02     1.03   0.364
  S5098                      0.65       0.00       0.00       0.21       0.51       0.00       0.38        0.02     1.07   0.583
  S40892                     0.65       0.00       0.00       0.31       0.40       0.00       0.30        0.03     1.70   0.456
  S4836                      0.65       0.00       0.00       0.45       0.23       0.00       0.17        0.01     0.35   0.266
  S4837                      0.65       0.00       0.00       0.44       0.25       0.00       0.19        0.01     0.39   0.286
  S41751                     0.65       0.00       0.00       0.49       0.19       0.00       0.14        0.01     0.38   0.223
  S41752                     0.65       0.00       0.00       0.42       0.27       0.00       0.20        0.02     1.29   0.310
  S4574                      0.65       0.00       0.00       0.20       0.52       0.00       0.39        0.04     2.48   0.597
  S41761                     0.65       0.00       0.00       0.26       0.45       0.00       0.34        0.06     2.48   0.516
  S45371                     0.65       0.00       0.00       0.21       0.51       0.00       0.38        0.02     1.34   0.590
  S4538                      0.65       0.00       0.00       0.41       0.28       0.00       0.21        0.06     2.86   0.321
  S45372                     0.65       0.00       0.00       0.41       0.28       0.00       0.21        0.02     1.36   0.322
  S45411                     0.65       0.00       0.00       0.51       0.16       0.00       0.12        0.01     0.39   0.189
  S4540                      0.65       0.00       0.00       0.46       0.22       0.00       0.16        0.00     0.17   0.249
  S4539                      0.65       0.00       0.00       0.43       0.25       0.00       0.19        0.01     0.88   0.289
  S4542                      0.65       0.00       0.00       0.15       0.56       0.02       0.44        0.04     1.79   0.678
  S45412                     0.65       0.00       0.00       0.27       0.44       0.00       0.33        0.01     0.88   0.505
  S49451                     0.65       0.00       0.00       0.20       0.52       0.00       0.39        0.02     1.22   0.602
  S3983                      0.65       0.00       0.00       0.65       0.01       0.00       0.00        0.00     0.01   0.006
  S4003                      0.65       0.00       0.00       0.58       0.08       0.00       0.06        0.01     0.49   0.094
  S3942                      0.65       0.00       0.00       0.60       0.05       0.00       0.04        0.00     0.10   0.061
  S4190                      0.65       0.00       0.00       0.49       0.19       0.00       0.14        0.01     0.47   0.213
  S4192                      0.65       0.00       0.00       0.63       0.02       0.00       0.02        0.00     0.16   0.025
  S4194                      0.65       0.00       0.00       0.61       0.05       0.00       0.04        0.01     0.59   0.054
  S4580                      0.65       0.00       0.00       0.59       0.07       0.00       0.05        0.00     0.30   0.075
  S3939                      0.65       0.00       0.00       0.65       0.00       0.00       0.00        0.00     0.05   0.005
  S41081                     0.65       0.00       0.00       0.58       0.08       0.00       0.06        0.01     1.01   0.098
  S4110                      0.65       0.00       0.00       0.62       0.03       0.00       0.03        0.01     0.54   0.040
  S4104                      0.65       0.00       0.00       0.59       0.07       0.00       0.05        0.02     1.22   0.082
  S39691                     0.65       0.00       0.00       0.64       0.02       0.00       0.01        0.00     0.07   0.020
  S4101                      0.65       0.00       0.00       0.59       0.06       0.00       0.05        0.07     4.43   0.075
  S3966                      0.65       0.00       0.00       0.60       0.06       0.00       0.04        0.00     0.32   0.067
  S4355                      0.65       0.00       0.00       0.62       0.04       0.00       0.03        0.00     0.21   0.044
  S4076                      0.65       0.00       0.00       0.63       0.02       0.00       0.01        0.00     0.11   0.022
  S5030                      0.65       0.00       0.00       0.59       0.07       0.00       0.05        0.01     0.96   0.083
  S43401                     0.65       0.00       0.00       0.56       0.11       0.00       0.08        0.02     1.21   0.124
  S43411                     0.65       0.00       0.00       0.61       0.04       0.00       0.03        0.00     0.32   0.049
  S43402                     0.65       0.00       0.00       0.62       0.03       0.00       0.02        0.00     0.15   0.038
  S49641                     0.65       0.00       0.00       0.57       0.09       0.00       0.07        0.00     0.08   0.108
  S41762                     0.65       0.00       0.00       0.63       0.02       0.00       0.02        0.00     0.28   0.028
  S5120                      0.65       0.00       0.00       0.54       0.12       0.00       0.09        0.00     0.27   0.144
  S5118                      0.65       0.00       0.00       0.45       0.24       0.00       0.18        0.00     0.05   0.271
  S4895                      0.65       0.00       0.00       0.64       0.01       0.00       0.01        0.00     0.27   0.014
  S4896                      0.65       0.00       0.00       0.60       0.06       0.00       0.04        0.01     0.76   0.065
  S4897                      0.65       0.00       0.00       0.62       0.03       0.00       0.02        0.00     0.10   0.037
  S4899                      0.65       0.00       0.00       0.62       0.03       0.00       0.02        0.00     0.11   0.036
  S4928                      0.65       0.00       0.00       0.39       0.31       0.00       0.23        0.01     0.86   0.361
  S4927                      0.65       0.00       0.00       0.34       0.35       0.00       0.26        0.01     0.51   0.407
  S4925                      0.65       0.00       0.00       0.31       0.39       0.00       0.30        0.01     0.42   0.455
  S4923                      0.65       0.00       0.00       0.45       0.23       0.00       0.17        0.00     0.30   0.267
  S4921                      0.65       0.00       0.00       0.50       0.18       0.00       0.13        0.00     0.29   0.206
  S4956                      0.65       0.00       0.00       0.43       0.26       0.00       0.19        0.04     2.21   0.294
  S49531                     0.65       0.00       0.00       0.64       0.01       0.00       0.01        0.00     0.03   0.010
  S4950                      0.65       0.00       0.00       0.61       0.05       0.00       0.04        0.00     0.21   0.058
  S4947                      0.65       0.00       0.00       0.64       0.01       0.00       0.01        0.00     0.05   0.014
  S49452                     0.65       0.00       0.00       0.65       0.00       0.00       0.00        0.00     0.00   0.000
  S49532                     0.65       0.00       0.00       0.63       0.03       0.00       0.02        0.01     0.84   0.030
  S4493                      0.65       0.00       0.00       0.40       0.29       0.00       0.22        0.00     0.28   0.335
  S41551                     0.65       0.00       0.00       0.36       0.33       0.00       0.25        0.01     0.90   0.380
  S4786                      0.65       0.00       0.00       0.64       0.02       0.00       0.01        0.00     0.20   0.020
  S4787                      0.65       0.00       0.00       0.64       0.02       0.00       0.01        0.00     0.23   0.019
  S4785                      0.65       0.00       0.00       0.65       0.00       0.00       0.00        0.00     0.02   0.003
  S41552                     0.65       0.00       0.00       0.61       0.04       0.00       0.03        0.01     0.46   0.047
  S4502                      0.65       0.00       0.00       0.60       0.06       0.00       0.05        0.01     0.70   0.073
  S48061                     0.65       0.00       0.00       0.64       0.01       0.00       0.01        0.01     0.61   0.016
  S48062                     0.65       0.00       0.00       0.63       0.02       0.00       0.02        0.02     1.43   0.028
  S4817                      0.65       0.00       0.00       0.62       0.04       0.00       0.03        0.01     0.72   0.042
  S4760                      0.65       0.00       0.00       0.57       0.09       0.00       0.07        0.01     0.65   0.103
  S47581                     0.65       0.00       0.00       0.32       0.38       0.00       0.28        0.01     0.83   0.438
  S41541                     0.65       0.00       0.00       0.52       0.14       0.00       0.11        0.00     0.19   0.167
  S41542                     0.65       0.00       0.00       0.35       0.35       0.00       0.26        0.05     2.89   0.405
  S39771                     0.65       0.00       0.00       0.60       0.06       0.00       0.05        0.00     0.09   0.073
  S3975                      0.65       0.00       0.00       0.61       0.04       0.00       0.03        0.01     0.81   0.047
  S41421                     0.65       0.00       0.00       0.56       0.11       0.00       0.08        0.00     0.18   0.126
  S4141                      0.65       0.00       0.00       0.61       0.05       0.00       0.04        0.00     0.15   0.059
  S41391                     0.65       0.00       0.00       0.62       0.03       0.00       0.02        0.00     0.17   0.036
  S4138                      0.65       0.00       0.00       0.63       0.03       0.00       0.02        0.00     0.12   0.032
  S4137                      0.65       0.00       0.00       0.63       0.02       0.00       0.01        0.00     0.09   0.022
  S39741                     0.65       0.00       0.00       0.61       0.05       0.00       0.04        0.00     0.28   0.057
  S45413                     0.65       0.00       0.00       0.39       0.30       0.00       0.23        0.00     0.30   0.347
  S4092                      0.65       0.00       0.00       0.33       0.38       0.00       0.28        0.02     1.53   0.434
  S4091                      0.65       0.00       0.00       0.35       0.35       0.00       0.26        0.02     1.57   0.407
  S4090                      0.65       0.00       0.00       0.31       0.39       0.00       0.30        0.02     1.45   0.454
  S40893                     0.65       0.00       0.00       0.37       0.33       0.00       0.24        0.02     1.43   0.375
  S40894                     0.65       0.00       0.00       0.33       0.37       0.00       0.28        0.01     0.94   0.431
  S40871                     0.65       0.00       0.00       0.34       0.36       0.00       0.27        0.01     0.77   0.420
  S4088                      0.65       0.00       0.00       0.39       0.31       0.00       0.23        0.01     0.75   0.358
  S44051                     0.65       0.00       0.00       0.36       0.34       0.00       0.25        0.02     1.12   0.387
  S39742                     0.65       0.00       0.00       0.30       0.40       0.00       0.30        0.00     0.21   0.461
  S40872                     0.65       0.00       0.00       0.32       0.38       0.00       0.28        0.01     0.53   0.432
  S40873                     0.65       0.00       0.00       0.24       0.48       0.00       0.36        0.02     1.21   0.551
  S4459                      0.65       0.00       0.00       0.51       0.16       0.00       0.12        0.03     1.81   0.186
  S41071                     0.65       0.00       0.00       0.52       0.15       0.00       0.12        0.01     0.66   0.178
  S4127                      0.65       0.00       0.00       0.48       0.20       0.00       0.15        0.01     0.84   0.236
  S4447                      0.65       0.00       0.00       0.56       0.11       0.00       0.08        0.01     0.41   0.127
  S41051                     0.65       0.00       0.00       0.52       0.16       0.00       0.12        0.01     0.79   0.183
  S41241                     0.65       0.00       0.00       0.47       0.21       0.00       0.16        0.02     1.00   0.239
  S4962                      0.65       0.00       0.00       0.53       0.13       0.00       0.10        0.01     0.36   0.153
  S4201                      0.65       0.00       0.00       0.63       0.02       0.00       0.02        0.00     0.33   0.027
  S43412                     0.65       0.00       0.00       0.36       0.34       0.00       0.26        0.02     1.55   0.393
  S4200                      0.65       0.00       0.00       0.46       0.22       0.00       0.16        0.01     0.40   0.253
  S41422                     0.65       0.00       0.00       0.41       0.27       0.00       0.21        0.04     2.35   0.316
  S41242                     0.65       0.00       0.00       0.46       0.23       0.00       0.17        0.02     0.95   0.260
  S41243                     0.65       0.00       0.00       0.49       0.19       0.00       0.14        0.02     1.36   0.214
  S41392                     0.65       0.00       0.00       0.44       0.24       0.00       0.18        0.03     1.92   0.281
  S39692                     0.65       0.00       0.00       0.43       0.26       0.00       0.19        0.05     2.51   0.298
  S39721                     0.65       0.00       0.00       0.45       0.24       0.00       0.18        0.04     2.34   0.272
  S39722                     0.65       0.00       0.00       0.54       0.13       0.00       0.10        0.02     1.32   0.148
  S39743                     0.65       0.00       0.00       0.47       0.21       0.00       0.16        0.03     1.87   0.245
  S40874                     0.65       0.00       0.00       0.46       0.22       0.00       0.16        0.01     0.66   0.250
  S39744                     0.65       0.00       0.00       0.50       0.17       0.00       0.13        0.01     0.47   0.196
  S40801                     0.65       0.00       0.00       0.39       0.31       0.00       0.23        0.03     1.89   0.354
  S4353                      0.65       0.00       0.00       0.40       0.29       0.00       0.22        0.02     1.12   0.337
  S40861                     0.65       0.00       0.00       0.41       0.28       0.00       0.21        0.03     2.11   0.319
  S40862                     0.65       0.00       0.00       0.45       0.24       0.00       0.18        0.02     1.41   0.272
  S40841                     0.65       0.00       0.00       0.37       0.33       0.00       0.25        0.03     1.72   0.377
  S40842                     0.65       0.00       0.00       0.47       0.21       0.00       0.16        0.02     1.31   0.241
  S40811                     0.65       0.00       0.00       0.37       0.32       0.00       0.24        0.02     1.68   0.374
  S4079                      0.65       0.00       0.00       0.59       0.07       0.00       0.05        0.01     0.73   0.078
  S43501                     0.65       0.00       0.00       0.53       0.14       0.00       0.10        0.02     1.49   0.159
  S4073                      0.65       0.00       0.00       0.45       0.23       0.00       0.17        0.01     0.88   0.268
  S43502                     0.65       0.00       0.00       0.39       0.30       0.00       0.23        0.03     2.01   0.348
  S40711                     0.65       0.00       0.00       0.34       0.37       0.00       0.27        0.03     2.33   0.422
  S4333                      0.65       0.00       0.00       0.37       0.32       0.00       0.24        0.11     6.46   0.373
  S43361                     0.65       0.00       0.00       0.47       0.21       0.00       0.15        0.03     1.82   0.237
  S47171                     0.65       0.00       0.00       0.35       0.35       0.00       0.26        0.07     4.20   0.401
  S47172                     0.65       0.00       0.00       0.48       0.20       0.00       0.15        0.02     1.36   0.227
  S43362                     0.65       0.00       0.00       0.48       0.19       0.00       0.15        0.05     3.54   0.224
  S4049                      0.65       0.00       0.00       0.39       0.31       0.00       0.23        0.01     0.37   0.355
  S4047                      0.65       0.00       0.00       0.54       0.13       0.00       0.10        0.01     0.86   0.147
  S40641                     0.65       0.00       0.00       0.47       0.21       0.00       0.16        0.02     1.52   0.247
  S40631                     0.65       0.00       0.00       0.51       0.17       0.00       0.13        0.02     1.53   0.193
  S45291                     0.65       0.00       0.00       0.40       0.30       0.00       0.22        0.01     0.67   0.341
  S4383                      0.65       0.00       0.00       0.36       0.34       0.00       0.25        0.01     0.60   0.390
  S4085                      0.65       0.00       0.00       0.39       0.30       0.00       0.23        0.01     0.67   0.350
  S4795                      0.65       0.00       0.00       0.42       0.27       0.00       0.20        0.25    11.61   0.307
  S4820                      0.65       0.00       0.00       0.21       0.51       0.00       0.38        0.22     9.43   0.591
  S5067                      0.65       0.00       0.00       0.59       0.07       0.00       0.05        0.07     4.46   0.082
  S5069                      0.65       0.00       0.00       0.65       0.00       0.00       0.00        0.00     0.00   0.000
  S48063                     0.65       0.00       0.00       0.54       0.12       0.00       0.09        0.02     1.29   0.143
  S4516                      0.65       0.00       0.00       0.62       0.04       0.00       0.03        0.02     1.06   0.043
  S4162                      0.65       0.00       0.00       0.62       0.04       0.00       0.03        0.03     1.79   0.043
  S4163                      0.65       0.00       0.00       0.51       0.16       0.00       0.12        0.02     1.26   0.187
  S5043                      0.65       0.00       0.00       0.26       0.44       0.00       0.33        0.04     2.90   0.512
  S4793                      0.65       0.00       0.00       0.59       0.07       0.00       0.05        0.01     0.51   0.083
  S4156                      0.65       0.00       0.00       0.51       0.16       0.00       0.12        0.00     0.29   0.180
  S4158                      0.65       0.00       0.00       0.60       0.05       0.00       0.04        0.01     0.49   0.063
  S4159                      0.65       0.00       0.00       0.54       0.12       0.00       0.09        0.09     5.66   0.141
  S4725                      0.65       0.00       0.00       0.64       0.02       0.00       0.01        0.00     0.32   0.017
  S4789                      0.65       0.00       0.00       0.60       0.05       0.00       0.04        0.02     1.42   0.063
  S5169                      0.65       0.00       0.00       0.63       0.02       0.00       0.02        0.01     0.94   0.023
  S41553                     0.65       0.00       0.00       0.41       0.28       0.00       0.21        0.02     1.24   0.322
  S4936                      0.65       0.00       0.00       0.45       0.23       0.00       0.17        0.03     1.84   0.263
  S41052                     0.65       0.00       0.00       0.63       0.03       0.00       0.02        0.00     0.32   0.030
  S4106                      0.65       0.00       0.00       0.63       0.02       0.00       0.02        0.00     0.20   0.027
  S41072                     0.65       0.00       0.00       0.63       0.03       0.00       0.02        0.00     0.34   0.030
  S41082                     0.65       0.00       0.00       0.55       0.11       0.00       0.09        0.01     0.42   0.132
  S41083                     0.65       0.00       0.00       0.61       0.04       0.00       0.03        0.00     0.11   0.051
  S39772                     0.65       0.00       0.00       0.57       0.10       0.00       0.07        0.01     0.42   0.112
  S47582                     0.65       0.00       0.00       0.63       0.02       0.00       0.02        0.00     0.15   0.026
  S4146                      0.65       0.00       0.00       0.43       0.26       0.00       0.19        0.05     2.53   0.298
  S44052                     0.65       0.00       0.00       0.46       0.22       0.00       0.17        0.02     1.38   0.256
  S49691                     0.65       0.00       0.00       0.35       0.34       0.00       0.26        0.01     0.53   0.397
  S45871                     0.65       0.00       0.00       0.35       0.35       0.00       0.26        0.01     0.49   0.401
  S47261                     0.65       0.00       0.00       0.20       0.51       0.00       0.38        0.01     0.64   0.589
  S45872                     0.65       0.00       0.00       0.31       0.39       0.00       0.30        0.01     0.44   0.454
  S47271                     0.65       0.00       0.00       0.19       0.52       0.00       0.39        0.01     0.50   0.604
  S47272                     0.65       0.00       0.00       0.31       0.39       0.00       0.29        0.01     0.35   0.446
  S47273                     0.65       0.00       0.00       0.10       0.57       0.06       0.48        0.02     1.05   0.738
  S47274                     0.65       0.00       0.00       0.36       0.34       0.00       0.25        0.01     0.59   0.391
  S4728                      0.65       0.00       0.00       0.14       0.56       0.03       0.45        0.01     0.56   0.688
  S47275                     0.65       0.00       0.00       0.36       0.33       0.00       0.25        0.00     0.33   0.379
  S4509                      0.65       0.00       0.00       0.15       0.55       0.02       0.44        0.02     1.04   0.676
  S45841                     0.65       0.00       0.00       0.19       0.53       0.00       0.40        0.01     0.88   0.613
  S4510                      0.65       0.00       0.00       0.30       0.41       0.00       0.30        0.01     0.76   0.468
  S45081                     0.65       0.00       0.00       0.12       0.56       0.04       0.46        0.03     1.72   0.712
  S52051                     0.65       0.00       0.00       0.31       0.39       0.00       0.29        0.02     1.03   0.447
  S52052                     0.65       0.00       0.00       0.40       0.28       0.00       0.21        0.00     0.18   0.325
  S45082                     0.65       0.00       0.00       0.05       0.57       0.10       0.53        0.01     0.50   0.815
  S51701                     0.65       0.00       0.00       0.18       0.53       0.00       0.40        0.01     0.60   0.614
  S52053                     0.65       0.00       0.00       0.28       0.43       0.00       0.32        0.01     0.46   0.492
  S50571                     0.65       0.00       0.00       0.03       0.58       0.12       0.55        0.01     0.40   0.841
  S5204                      0.65       0.00       0.00       0.39       0.30       0.00       0.22        0.00     0.16   0.341
  S48081                     0.65       0.00       0.00       0.02       0.58       0.12       0.56        0.02     1.17   0.855
  S45842                     0.65       0.00       0.00       0.21       0.50       0.00       0.38        0.00     0.33   0.576
  S51702                     0.65       0.00       0.00       0.24       0.47       0.00       0.35        0.01     0.88   0.539
  S48082                     0.65       0.00       0.00       0.18       0.54       0.00       0.40        0.01     0.94   0.618
  S51703                     0.65       0.00       0.00       0.30       0.40       0.00       0.30        0.01     0.72   0.464
  S48091                     0.65       0.00       0.00       0.17       0.55       0.01       0.42        0.01     0.87   0.640
  S50591                     0.65       0.00       0.00       0.33       0.36       0.00       0.27        0.01     0.58   0.418
  S48092                     0.65       0.00       0.00       0.18       0.54       0.00       0.40        0.01     0.87   0.619
  S50592                     0.65       0.00       0.00       0.24       0.47       0.00       0.35        0.01     0.71   0.538
  S48093                     0.65       0.00       0.00       0.18       0.54       0.00       0.41        0.01     0.70   0.625
  S50593                     0.65       0.00       0.00       0.27       0.43       0.00       0.32        0.01     0.64   0.497
  S48094                     0.65       0.00       0.00       0.14       0.56       0.03       0.44        0.01     0.76   0.683
  S49692                     0.65       0.00       0.00       0.36       0.33       0.00       0.25        0.00     0.19   0.379
  S50594                     0.65       0.00       0.00       0.30       0.40       0.00       0.30        0.01     0.61   0.465
  S48095                     0.65       0.00       0.00       0.09       0.57       0.07       0.50        0.01     0.93   0.762
  S50595                     0.65       0.00       0.00       0.32       0.38       0.00       0.29        0.01     0.58   0.443
  S4810                      0.65       0.00       0.00       0.14       0.56       0.03       0.44        0.01     0.79   0.683
  S5060                      0.65       0.00       0.00       0.28       0.43       0.00       0.32        0.01     0.61   0.490
  S48111                     0.65       0.00       0.00       0.18       0.54       0.00       0.41        0.01     0.69   0.624
  S50611                     0.65       0.00       0.00       0.24       0.47       0.00       0.35        0.01     0.63   0.542
  S48112                     0.65       0.00       0.00       0.18       0.54       0.00       0.40        0.01     0.72   0.619
  S5062                      0.65       0.00       0.00       0.21       0.51       0.00       0.38        0.01     0.66   0.582
  S4812                      0.65       0.00       0.00       0.15       0.55       0.03       0.44        0.01     0.69   0.678
  S49693                     0.65       0.00       0.00       0.33       0.37       0.00       0.28        0.00     0.34   0.426
  S5063                      0.65       0.00       0.00       0.05       0.57       0.10       0.53        0.01     0.71   0.809
  S48131                     0.65       0.00       0.00       0.12       0.56       0.04       0.46        0.01     0.35   0.712
  S50641                     0.65       0.00       0.00       0.16       0.55       0.02       0.43        0.00     0.31   0.660
  S4814                      0.65       0.00       0.00       0.19       0.52       0.00       0.39        0.01     0.83   0.601
  S50642                     0.65       0.00       0.00       0.22       0.49       0.00       0.37        0.01     0.70   0.562
  S48151                     0.65       0.00       0.00       0.16       0.55       0.02       0.43        0.02     1.22   0.659
  S50661                     0.65       0.00       0.00       0.27       0.44       0.00       0.33        0.01     0.93   0.504
  S48152                     0.65       0.00       0.00       0.11       0.57       0.05       0.47        0.02     1.57   0.728
  S50662                     0.65       0.00       0.00       0.28       0.43       0.00       0.32        0.01     1.01   0.490
  S48153                     0.65       0.00       0.00       0.03       0.58       0.12       0.55        0.01     0.79   0.850
  S49642                     0.65       0.00       0.00       0.23       0.49       0.00       0.36        0.01     0.63   0.559
  S50663                     0.65       0.00       0.00       0.31       0.39       0.00       0.30        0.01     0.48   0.455
  S45041                     0.65       0.00       0.00       0.22       0.49       0.00       0.37        0.01     0.96   0.569
  S49643                     0.65       0.00       0.00       0.18       0.54       0.00       0.40        0.01     0.82   0.619
  S49711                     0.65       0.00       0.00       0.35       0.34       0.00       0.25        0.01     0.49   0.390
  S47262                     0.65       0.00       0.00       0.16       0.55       0.02       0.43        0.01     0.78   0.660
  S45083                     0.65       0.00       0.00       0.64       0.01       0.00       0.01        0.01     0.56   0.010
  S45042                     0.65       0.00       0.00       0.65       0.00       0.00       0.00        0.00     0.34   0.005
  S50643                     0.65       0.00       0.00       0.43       0.25       0.00       0.19        0.03     1.89   0.292
  S49694                     0.65       0.00       0.00       0.38       0.31       0.00       0.23        0.00     0.11   0.353
  S49695                     0.65       0.00       0.00       0.33       0.37       0.00       0.28        0.01     0.41   0.425
  S48132                     0.65       0.00       0.00       0.61       0.05       0.00       0.04        0.00     0.09   0.057
  S48096                     0.65       0.00       0.00       0.64       0.01       0.00       0.01        0.00     0.09   0.010
  S48083                     0.65       0.00       0.00       0.62       0.03       0.00       0.03        0.00     0.05   0.040
  S48084                     0.65       0.00       0.00       0.63       0.03       0.00       0.02        0.00     0.03   0.030
  S50572                     0.65       0.00       0.00       0.56       0.10       0.00       0.08        0.00     0.20   0.115
  S50573                     0.65       0.00       0.00       0.62       0.04       0.00       0.03        0.00     0.10   0.043
  S52061                     0.65       0.00       0.00       0.46       0.22       0.00       0.16        0.00     0.32   0.248
  S52062                     0.65       0.00       0.00       0.49       0.18       0.00       0.13        0.01     0.48   0.207
  S50612                     0.65       0.00       0.00       0.59       0.07       0.00       0.05        0.00     0.16   0.077
  S47276                     0.65       0.00       0.00       0.65       0.00       0.00       0.00        0.00     0.00   0.000
  S47263                     0.65       0.00       0.00       0.65       0.00       0.00       0.00        0.00     0.00   0.002
  S49644                     0.65       0.00       0.00       0.64       0.01       0.00       0.01        0.00     0.02   0.010
  S45843                     0.65       0.00       0.00       0.56       0.11       0.00       0.08        0.00     0.08   0.125
  S45084                     0.65       0.00       0.00       0.60       0.06       0.00       0.05        0.00     0.20   0.071
  S50596                     0.65       0.00       0.00       0.45       0.23       0.00       0.17        0.02     1.38   0.262
  S51704                     0.65       0.00       0.00       0.34       0.35       0.00       0.26        0.01     0.51   0.405
  S51705                     0.65       0.00       0.00       0.35       0.34       0.00       0.26        0.00     0.13   0.397
  S52054                     0.65       0.00       0.00       0.33       0.37       0.00       0.28        0.01     0.95   0.427
  S47277                     0.65       0.00       0.00       0.37       0.32       0.00       0.24        0.01     0.75   0.370
  S49712                     0.65       0.00       0.00       0.37       0.32       0.00       0.24        0.01     0.52   0.368
  S49713                     0.65       0.00       0.00       0.34       0.36       0.00       0.27        0.00     0.34   0.411
  S43091                     0.65       0.00       0.00       0.18       0.54       0.00       0.40        0.00     0.24   0.622
  S43011                     0.65       0.00       0.00       0.14       0.55       0.03       0.44        0.00     0.12   0.678
  S4294                      0.65       0.00       0.00       0.25       0.46       0.00       0.34        0.00     0.08   0.526
  S43012                     0.65       0.00       0.00       0.24       0.47       0.00       0.35        0.00     0.18   0.538
  S4062                      0.65       0.00       0.00       0.24       0.46       0.00       0.35        0.00     0.32   0.536
  S4692                      0.65       0.00       0.00       0.19       0.53       0.00       0.39        0.00     0.18   0.606
  S43141                     0.65       0.00       0.00       0.14       0.56       0.03       0.44        0.00     0.16   0.681
  S4322                      0.65       0.00       0.00       0.00       0.58       0.14       0.58        0.00     0.11   0.892
  S43211                     0.65       0.00       0.00       0.31       0.39       0.00       0.30        0.00     0.20   0.453
  S46991                     0.65       0.00       0.00       0.24       0.47       0.00       0.35        0.00     0.23   0.541
  S4331                      0.65       0.00       0.00       0.15       0.55       0.02       0.44        0.00     0.24   0.675
  S46931                     0.65       0.00       0.00       0.23       0.49       0.00       0.36        0.00     0.19   0.559
  S4330                      0.65       0.00       0.00       0.19       0.53       0.00       0.40        0.00     0.05   0.612
  S47021                     0.65       0.00       0.00       0.22       0.49       0.00       0.37        0.00     0.12   0.564
  S50791                     0.65       0.00       0.00       0.10       0.57       0.06       0.48        0.00     0.17   0.740
  S50781                     0.65       0.00       0.00       0.02       0.58       0.13       0.57        0.00     0.17   0.870
  S48391                     0.65       0.00       0.00       0.18       0.54       0.00       0.41        0.00     0.21   0.623
  S48311                     0.65       0.00       0.00       0.14       0.55       0.03       0.44        0.00     0.24   0.677
  S48291                     0.65       0.00       0.00       0.19       0.53       0.00       0.40        0.00     0.18   0.614
  S40151                     0.65       0.00       0.00       0.20       0.52       0.00       0.39        0.01     0.36   0.594
  S43281                     0.65       0.00       0.00       0.21       0.50       0.00       0.38        0.00     0.17   0.579
  S43291                     0.65       0.00       0.00       0.16       0.55       0.02       0.43        0.00     0.12   0.659
  S43061                     0.65       0.00       0.00       0.22       0.49       0.00       0.37        0.00     0.07   0.569
  S43261                     0.65       0.00       0.00       0.17       0.54       0.01       0.42        0.00     0.14   0.647
  S43271                     0.65       0.00       0.00       0.00       0.58       0.00       0.58        0.00     0.11   0.892
  S43201                     0.65       0.00       0.00       0.06       0.57       0.09       0.52        0.00     0.20   0.798
  S40421                     0.65       0.00       0.00       0.10       0.57       0.06       0.49        0.00     0.11   0.745
  S4250                      0.65       0.00       0.00       0.00       0.58       0.00       0.58        0.00     0.14   0.889
  S42461                     0.65       0.00       0.00       0.23       0.49       0.00       0.36        0.00     0.10   0.560
  S40051                     0.65       0.00       0.00       0.08       0.57       0.07       0.50        0.00     0.10   0.766
  S49811                     0.65       0.00       0.00       0.18       0.54       0.01       0.41        0.00     0.12   0.636
  S4305                      0.65       0.00       0.00       0.00       0.58       0.00       0.58        0.00     0.13   0.889
  S51481                     0.65       0.00       0.00       0.19       0.53       0.00       0.39        0.00     0.10   0.606
  S45921                     0.65       0.00       0.00       0.15       0.55       0.02       0.44        0.00     0.22   0.670
  S4992                      0.65       0.00       0.00       0.28       0.42       0.00       0.32        0.00     0.08   0.486
  S4972                      0.65       0.00       0.00       0.00       0.58       0.14       0.57        0.00     0.11   0.883
  S5195                      0.65       0.00       0.00       0.25       0.45       0.00       0.34        0.00     0.20   0.524
  S4973                      0.65       0.00       0.00       0.11       0.56       0.05       0.47        0.00     0.27   0.722
  S5224                      0.65       0.00       0.00       0.29       0.42       0.00       0.31        0.00     0.10   0.481
  S5200                      0.65       0.00       0.00       0.01       0.58       0.14       0.57        0.00     0.15   0.882
  S5152                      0.65       0.00       0.00       0.02       0.58       0.13       0.56        0.00     0.12   0.863
  S5150                      0.65       0.00       0.00       0.22       0.49       0.00       0.37        0.00     0.14   0.570
  S40521                     0.65       0.00       0.00       0.25       0.45       0.00       0.34        0.01     0.46   0.524
  S49812                     0.65       0.00       0.00       0.10       0.57       0.06       0.48        0.00     0.15   0.742
  S42471                     0.65       0.00       0.00       0.20       0.51       0.00       0.39        0.00     0.24   0.592
  S42462                     0.65       0.00       0.00       0.29       0.42       0.00       0.31        0.00     0.04   0.482
  S4614                      0.65       0.00       0.00       0.01       0.58       0.14       0.57        0.00     0.23   0.877
  S4245                      0.65       0.00       0.00       0.12       0.56       0.04       0.47        0.00     0.18   0.718
  S42472                     0.65       0.00       0.00       0.20       0.52       0.00       0.39        0.00     0.19   0.600
  S4252                      0.65       0.00       0.00       0.22       0.49       0.00       0.37        0.00     0.12   0.563
  S49801                     0.65       0.00       0.00       0.18       0.54       0.01       0.41        0.00     0.17   0.634
  S51621                     0.65       0.00       0.00       0.25       0.46       0.00       0.35        0.00     0.10   0.534
  S4616                      0.65       0.00       0.00       0.06       0.57       0.09       0.52        0.00     0.15   0.797
  S4304                      0.65       0.00       0.00       0.20       0.52       0.00       0.39        0.00     0.26   0.600
  S49802                     0.65       0.00       0.00       0.20       0.52       0.00       0.39        0.00     0.23   0.597
  S51482                     0.65       0.00       0.00       0.09       0.57       0.07       0.49        0.00     0.18   0.756
  S4303                      0.65       0.00       0.00       0.29       0.41       0.00       0.31        0.00     0.05   0.471
  S43021                     0.65       0.00       0.00       0.00       0.58       0.00       0.58        0.00     0.15   0.892
  S51622                     0.65       0.00       0.00       0.01       0.58       0.14       0.57        0.00     0.26   0.874
  S43142                     0.65       0.00       0.00       0.15       0.55       0.02       0.43        0.01     0.48   0.667
  S50782                     0.65       0.00       0.00       0.20       0.52       0.00       0.39        0.00     0.17   0.602
  S45922                     0.65       0.00       0.00       0.19       0.52       0.00       0.39        0.01     0.56   0.602
  S43013                     0.65       0.00       0.00       0.12       0.56       0.04       0.46        0.02     1.07   0.709
  S43143                     0.65       0.00       0.00       0.18       0.54       0.00       0.40        0.01     0.41   0.621
  S43202                     0.65       0.00       0.00       0.20       0.52       0.00       0.39        0.01     0.76   0.596
  S43292                     0.65       0.00       0.00       0.17       0.54       0.01       0.42        0.00     0.14   0.640
  S43262                     0.65       0.00       0.00       0.12       0.56       0.05       0.47        0.00     0.19   0.719
  S50792                     0.65       0.00       0.00       0.21       0.51       0.00       0.38        0.00     0.11   0.583
  S50783                     0.65       0.00       0.00       0.65       0.00       0.00       0.00        0.00     0.00   0.002
  S43272                     0.65       0.00       0.00       0.58       0.08       0.00       0.06        0.00     0.16   0.094
  S48392                     0.65       0.00       0.00       0.65       0.00       0.00       0.00        0.00     0.00   0.000
  S50784                     0.65       0.00       0.00       0.39       0.31       0.00       0.23        0.00     0.23   0.355
  S43293                     0.65       0.00       0.00       0.61       0.05       0.00       0.04        0.00     0.01   0.056
  S43294                     0.65       0.00       0.00       0.60       0.06       0.00       0.04        0.00     0.01   0.067
  S43263                     0.65       0.00       0.00       0.64       0.01       0.00       0.01        0.00     0.02   0.009
  S43203                     0.65       0.00       0.00       0.59       0.07       0.00       0.05        0.00     0.04   0.084
  S40681                     0.65       0.00       0.00       0.39       0.31       0.00       0.23        0.00     0.22   0.355
  S43144                     0.65       0.00       0.00       0.58       0.08       0.00       0.06        0.00     0.03   0.096
  S43282                     0.65       0.00       0.00       0.58       0.09       0.00       0.06        0.00     0.01   0.099
  S43145                     0.65       0.00       0.00       0.62       0.04       0.00       0.03        0.00     0.01   0.041
  S43146                     0.65       0.00       0.00       0.39       0.31       0.00       0.23        0.01     0.49   0.359
  S43147                     0.65       0.00       0.00       0.64       0.01       0.00       0.01        0.00     0.00   0.015
  S43014                     0.65       0.00       0.00       0.65       0.00       0.00       0.00        0.00     0.01   0.003
  S48312                     0.65       0.00       0.00       0.65       0.00       0.00       0.00        0.00     0.00   0.002
  S48292                     0.65       0.00       0.00       0.64       0.01       0.00       0.01        0.00     0.00   0.009
  S43015                     0.65       0.00       0.00       0.58       0.08       0.00       0.06        0.00     0.11   0.093
  S46992                     0.65       0.00       0.00       0.58       0.08       0.00       0.06        0.00     0.02   0.092
  S40522                     0.65       0.00       0.00       0.47       0.21       0.00       0.16        0.00     0.12   0.242
  S43092                     0.65       0.00       0.00       0.55       0.11       0.00       0.09        0.00     0.05   0.132
  S46932                     0.65       0.00       0.00       0.60       0.06       0.00       0.04        0.00     0.06   0.065
  S43062                     0.65       0.00       0.00       0.61       0.05       0.00       0.04        0.00     0.05   0.061
  S43022                     0.65       0.00       0.00       0.62       0.04       0.00       0.03        0.00     0.03   0.048
  S43016                     0.65       0.00       0.00       0.65       0.00       0.00       0.00        0.00     0.00   0.000
  S47022                     0.65       0.00       0.00       0.65       0.00       0.00       0.00        0.00     0.00   0.000
  S45971                     0.65       0.00       0.00       0.65       0.00       0.00       0.00        0.00     0.00   0.000
  S4202                      0.65       0.00       0.00       0.65       0.00       0.00       0.00        0.00     0.00   0.000
  S40052                     0.65       0.00       0.00       0.59       0.07       0.00       0.05        0.00     0.13   0.084
  S50793                     0.65       0.00       0.00       0.65       0.00       0.00       0.00        0.00     0.00   0.000
  S45923                     0.65       0.00       0.00       0.65       0.00       0.00       0.00        0.00     0.00   0.000
  S50785                     0.65       0.00       0.00       0.65       0.00       0.00       0.00        0.00     0.00   0.000
  S50794                     0.65       0.00       0.00       0.65       0.00       0.00       0.00        0.00     0.00   0.000
  S43148                     0.65       0.00       0.00       0.46       0.23       0.00       0.17        0.00     0.25   0.261
  S40682                     0.65       0.00       0.00       0.16       0.55       0.02       0.43        0.00     0.16   0.663
  S40152                     0.65       0.00       0.00       0.59       0.08       0.00       0.06        0.00     0.13   0.087
  S4242                      0.65       0.00       0.00       0.49       0.19       0.00       0.14        0.02     0.96   0.219
  S4030                      0.65       0.00       0.00       0.51       0.17       0.00       0.13        0.01     0.53   0.196
  S4258                      0.65       0.00       0.00       0.46       0.22       0.00       0.17        0.01     0.81   0.257
  S4995                      0.65       0.00       0.00       0.49       0.19       0.00       0.14        0.01     0.43   0.218
  S45924                     0.65       0.00       0.00       0.46       0.23       0.00       0.17        0.00     0.26   0.262
  S4589                      0.65       0.00       0.00       0.65       0.00       0.00       0.00        0.00     0.00   0.000
  S5180                      0.65       0.00       0.00       0.55       0.12       0.00       0.09        0.01     0.34   0.134
  S4988                      0.65       0.00       0.00       0.46       0.23       0.00       0.17        0.02     1.42   0.261
  S45972                     0.65       0.00       0.00       0.49       0.20       0.00       0.15        0.02     0.93   0.226
  S45973                     0.65       0.00       0.00       0.44       0.25       0.00       0.19        0.01     0.98   0.294
  S4017                      0.65       0.00       0.00       0.65       0.00       0.00       0.00        0.00     0.00   0.000
  S4019                      0.65       0.00       0.00       0.46       0.23       0.00       0.17        0.01     0.73   0.267
  S4978                      0.65       0.00       0.00       0.65       0.00       0.00       0.00        0.00     0.00   0.000
  S40153                     0.65       0.00       0.00       0.65       0.00       0.00       0.00        0.00     0.00   0.000
  S46933                     0.65       0.00       0.00       0.63       0.02       0.00       0.02        0.00     0.01   0.024
  S5183                      0.65       0.00       0.00       0.55       0.12       0.00       0.09        0.00     0.16   0.135
  S5189                      0.65       0.00       0.00       0.64       0.01       0.00       0.01        0.00     0.01   0.011
  S43063                     0.65       0.00       0.00       0.65       0.00       0.00       0.00        0.00     0.00   0.000
  S40683                     0.65       0.00       0.00       0.13       0.56       0.04       0.46        0.01     0.67   0.702
  S43212                     0.65       0.00       0.00       0.51       0.16       0.00       0.12        0.00     0.11   0.182
  S43017                     0.65       0.00       0.00       0.65       0.00       0.00       0.00        0.00     0.00   0.000
  S4599                      0.65       0.00       0.00       0.65       0.00       0.00       0.00        0.00     0.00   0.000
  S43018                     0.65       0.00       0.00       0.65       0.00       0.00       0.00        0.00     0.00   0.000
  S43149                     0.65       0.00       0.00       0.65       0.00       0.00       0.00        0.00     0.00   0.000
  S48313                     0.65       0.00       0.00       0.65       0.00       0.00       0.00        0.00     0.00   0.000
  S43264                     0.65       0.00       0.00       0.63       0.03       0.00       0.02        0.00     0.13   0.029
  S48314                     0.65       0.00       0.00       0.65       0.00       0.00       0.00        0.00     0.00   0.000
  S48293                     0.65       0.00       0.00       0.65       0.00       0.00       0.00        0.00     0.00   0.000
  S43093                     0.65       0.00       0.00       0.36       0.35       0.00       0.26        0.00     0.13   0.398
  S43064                     0.65       0.00       0.00       0.51       0.17       0.00       0.12        0.00     0.23   0.190
  S46993                     0.65       0.00       0.00       0.30       0.40       0.00       0.30        0.01     0.75   0.463
  S47131                     0.65       0.00       0.00       0.45       0.23       0.00       0.17        0.01     0.46   0.265
  S40632                     0.65       0.00       0.00       0.56       0.11       0.00       0.08        0.01     0.62   0.121
  S40642                     0.65       0.00       0.00       0.37       0.32       0.00       0.24        0.01     0.42   0.373
  S4241                      0.65       0.00       0.00       0.35       0.35       0.00       0.26        0.01     0.45   0.403
  S45043                     0.65       0.00       0.00       0.23       0.48       0.00       0.36        0.03     2.22   0.554
  S40611                     0.65       0.00       0.00       0.59       0.08       0.00       0.06        0.01     0.37   0.088
  S43295                     0.65       0.00       0.00       0.37       0.33       0.00       0.25        0.00     0.27   0.382
  S43213                     0.65       0.00       0.00       0.50       0.17       0.00       0.13        0.00     0.12   0.202
  S43191                     0.65       0.00       0.00       0.39       0.31       0.00       0.23        0.00     0.21   0.355
  S43192                     0.65       0.00       0.00       0.15       0.55       0.02       0.44        0.00     0.17   0.676
  S43193                     0.65       0.00       0.00       0.15       0.55       0.02       0.44        0.01     0.61   0.676
  S41662                     0.65       0.00       0.00       0.33       0.37       0.00       0.27        0.02     1.41   0.421
  S41663                     0.65       0.00       0.00       0.33       0.37       0.00       0.27        0.01     0.52   0.421
  S43001                     0.65       0.00       0.00       0.54       0.13       0.00       0.10        0.03     1.94   0.148
  S40643                     0.65       0.00       0.00       0.47       0.21       0.00       0.16        0.02     1.18   0.247
  S46994                     0.65       0.00       0.00       0.30       0.40       0.00       0.30        0.01     0.35   0.462
  S46995                     0.65       0.00       0.00       0.30       0.40       0.00       0.30        0.02     1.09   0.463
  S45292                     0.65       0.00       0.00       0.40       0.30       0.00       0.22        0.01     0.54   0.341
  S45323                     0.65       0.00       0.00       0.33       0.38       0.00       0.28        0.01     0.77   0.435
  S39902                     0.65       0.00       0.00       0.37       0.33       0.00       0.25        0.09     5.57   0.382
  S40053                     0.65       0.00       0.00       0.57       0.10       0.00       0.07        0.01     0.60   0.111
  S40054                     0.65       0.00       0.00       0.57       0.10       0.00       0.07        0.02     1.57   0.111
  S43002                     0.65       0.00       0.00       0.54       0.13       0.00       0.10        0.00     0.23   0.148
  S4689                      0.65       0.00       0.00       0.54       0.13       0.00       0.10        0.00     0.24   0.148
  S4687                      0.65       0.00       0.00       0.54       0.13       0.00       0.10        0.00     0.23   0.147
  S4688                      0.65       0.00       0.00       0.54       0.13       0.00       0.10        0.00     0.23   0.147
  S4343                      0.65       0.00       0.00       0.32       0.39       0.00       0.29        0.01     0.70   0.445
  S4313                      0.65       0.00       0.00       0.32       0.39       0.00       0.29        0.00     0.28   0.445
  S40644                     0.65       0.00       0.00       0.37       0.32       0.00       0.24        0.01     0.95   0.373
  S43101                     0.65       0.00       0.00       0.32       0.39       0.00       0.29        0.00     0.22   0.445
  S4695                      0.65       0.00       0.00       0.32       0.39       0.00       0.29        0.01     0.38   0.445
  S40612                     0.65       0.00       0.00       0.32       0.39       0.00       0.29        0.00     0.27   0.445
  S40802                     0.65       0.00       0.00       0.45       0.23       0.00       0.17        0.01     0.91   0.264
  S4694                      0.65       0.00       0.00       0.32       0.39       0.00       0.29        0.00     0.24   0.445
  S43102                     0.65       0.00       0.00       0.32       0.39       0.00       0.29        0.00     0.30   0.445
  S40803                     0.65       0.00       0.00       0.45       0.23       0.00       0.17        0.01     0.85   0.264
  S43503                     0.65       0.00       0.00       0.40       0.29       0.00       0.22        0.02     1.07   0.337
  S40712                     0.65       0.00       0.00       0.45       0.23       0.00       0.17        0.01     0.85   0.268
  S45352                     0.65       0.00       0.00       0.32       0.39       0.00       0.29        0.02     1.31   0.447
  S45362                     0.65       0.00       0.00       0.32       0.39       0.00       0.29        0.01     0.39   0.447
  S47132                     0.65       0.00       0.00       0.39       0.31       0.00       0.23        0.00     0.30   0.355
  S4297                      0.65       0.00       0.00       0.39       0.31       0.00       0.23        0.01     0.46   0.355
  S5032                      0.65       0.00       0.00       0.45       0.23       0.00       0.17        0.00     0.04   0.264
  S4296                      0.65       0.00       0.00       0.39       0.31       0.00       0.23        0.01     0.34   0.355
  S4298                      0.65       0.00       0.00       0.39       0.31       0.00       0.23        0.01     0.38   0.355
  S4683                      0.65       0.00       0.00       0.39       0.31       0.00       0.23        0.00     0.25   0.356
  S4295                      0.65       0.00       0.00       0.39       0.31       0.00       0.23        0.00     0.31   0.355
  S4743                      0.65       0.00       0.00       0.46       0.22       0.00       0.16        0.01     0.37   0.251
  S4742                      0.65       0.00       0.00       0.46       0.22       0.00       0.16        0.01     0.41   0.251
  S40812                     0.65       0.00       0.00       0.46       0.22       0.00       0.16        0.01     0.70   0.251
  S40422                     0.65       0.00       0.00       0.49       0.14       0.00       0.14        0.01     0.38   0.213
  S4277                      0.65       0.00       0.00       0.49       0.14       0.00       0.14        0.02     1.47   0.213
  S4664                      0.65       0.00       0.00       0.49       0.14       0.00       0.14        0.01     0.79   0.213
  S4635                      0.65       0.00       0.00       0.49       0.14       0.00       0.14        0.02     1.19   0.213
  S4644                      0.65       0.00       0.00       0.49       0.14       0.00       0.14        0.02     1.19   0.213
  S4282                      0.65       0.00       0.00       0.49       0.14       0.00       0.14        0.03     1.89   0.213
  
  
  ******************
  Node Depth Summary
  ******************
  
  ---------------------------------------------------------------------------------
                                 Average  Maximum  Maximum  Time of Max    Reported
                                   Depth    Depth      HGL   Occurrence   Max Depth
  Node                 Type         Feet     Feet     Feet  days hr:min        Feet
  ---------------------------------------------------------------------------------
  N_4178               JUNCTION     0.00     0.00   286.23     0  00:00        0.00
  N_4179               JUNCTION     0.00     0.00   285.98     0  00:00        0.00
  N_4181               JUNCTION     0.00     0.00   288.71     0  00:00        0.00
  N_4180               JUNCTION     0.00     0.00   287.46     0  00:00        0.00
  N_4182               JUNCTION     0.02     0.26   290.52     0  02:06        0.26
  N_4183               JUNCTION     0.00     0.00   287.99     0  00:00        0.00
  N_4185               JUNCTION     0.00     0.00   290.95     0  00:00        0.00
  N_4186               JUNCTION     0.00     0.00   292.24     0  00:00        0.00
  N_4187               JUNCTION     0.00     0.00   292.33     0  00:00        0.00
  N_4000               JUNCTION     0.00     0.00   292.05     0  00:00        0.00
  44                   JUNCTION     0.00     0.00   293.37     0  00:00        0.00
  N_4188               JUNCTION     0.00     0.00   292.54     0  00:00        0.00
  N_4521               JUNCTION     0.00     0.00   287.13     0  00:00        0.00
  N_4520               JUNCTION     0.00     0.00   286.88     0  00:00        0.00
  N_4522               JUNCTION     0.00     0.00   288.27     0  00:00        0.00
  N_4523               JUNCTION     0.00     0.00   288.08     0  00:00        0.00
  N_4524               JUNCTION     0.00     0.00   285.04     0  00:00        0.00
  N_4526               JUNCTION     0.00     0.00   285.76     0  00:00        0.00
  N_4525               JUNCTION     0.00     0.00   285.70     0  00:00        0.00
  N_4552               JUNCTION     0.00     0.00   288.86     0  00:00        0.00
  N_4551               JUNCTION     0.00     0.00   289.17     0  00:00        0.00
  N_4549               JUNCTION     0.00     0.00   286.72     0  00:00        0.00
  N_4553               JUNCTION     0.00     0.00   289.48     0  00:00        0.00
  N_4559               JUNCTION     0.23     1.25   287.02     0  02:11        1.24
  N_4554               JUNCTION     0.00     0.00   291.19     0  00:00        0.00
  N_4555               JUNCTION     0.00     0.00   291.27     0  00:00        0.00
  N_4558               JUNCTION     0.00     0.00   294.24     0  00:00        0.00
  N_4560               JUNCTION     0.00     0.00   292.53     0  00:00        0.00
  N_4563               JUNCTION     0.00     0.00   291.92     0  00:00        0.00
  N_4562               JUNCTION     0.00     0.00   291.50     0  00:00        0.00
  N_4561               JUNCTION     0.00     0.00   289.92     0  00:00        0.00
  N_4564               JUNCTION     0.00     0.00   293.56     0  00:00        0.00
  N_4565               JUNCTION     0.00     0.00   294.01     0  00:00        0.00
  N_4566               JUNCTION     0.00     0.00   295.81     0  00:00        0.00
  N_4961               JUNCTION     0.00     0.00   299.08     0  00:00        0.00
  N_4573               JUNCTION     0.00     0.00   296.01     0  00:00        0.00
  N_4575               JUNCTION     0.00     0.00   303.40     0  00:00        0.00
  465                  JUNCTION     0.00     0.00   304.42     0  00:00        0.00
  466                  JUNCTION     0.00     0.00   304.48     0  00:00        0.00
  467                  JUNCTION     0.00     0.00   307.69     0  00:00        0.00
  N_4177               JUNCTION     0.00     0.00   301.74     0  00:00        0.00
  N_4830               JUNCTION     0.00     0.00   291.65     0  00:00        0.00
  N_4829               JUNCTION     0.01     0.09   291.68     0  02:06        0.09
  N_4831               JUNCTION     0.01     0.11   294.11     0  02:06        0.11
  N_4833               JUNCTION     0.00     0.00   295.02     0  00:00        0.00
  N_4839               JUNCTION     0.01     0.12   296.90     0  02:06        0.12
  N_4842               JUNCTION     0.00     0.00   297.06     0  00:00        0.00
  N_4841               JUNCTION     0.00     0.00   297.31     0  00:00        0.00
  N_4840               JUNCTION     0.00     0.00   297.16     0  00:00        0.00
  502                  JUNCTION     0.00     0.00     0.00     0  00:00        0.00
  N_4844               JUNCTION     0.00     0.00   299.90     0  00:00        0.00
  N_4843               JUNCTION     0.00     0.00   299.69     0  00:00        0.00
  N_5109               JUNCTION     0.00     0.05   297.62     0  02:09        0.04
  N_4845               JUNCTION     0.00     0.00   301.92     0  00:00        0.00
  N_4846               JUNCTION     0.00     0.00   301.79     0  00:00        0.00
  N_4849               JUNCTION     0.00     0.00   301.00     0  00:00        0.00
  N_4847               JUNCTION     0.00     0.00   301.88     0  00:00        0.00
  536                  JUNCTION     0.00     0.00   296.20     0  00:00        0.00
  N_5107               JUNCTION     0.00     0.00   298.24     0  00:00        0.00
  N_4868               JUNCTION     0.00     0.00   300.00     0  00:00        0.00
  N_4869               JUNCTION     0.00     0.00   298.23     0  00:00        0.00
  N_4870               JUNCTION     0.00     0.00   302.46     0  00:00        0.00
  N_4877               JUNCTION     0.00     0.00   303.70     0  00:00        0.00
  N_4871               JUNCTION     0.00     0.00   303.68     0  00:00        0.00
  N_4875               JUNCTION     0.00     0.00   303.82     0  00:00        0.00
  N_5111               JUNCTION     0.00     0.00   303.10     0  00:00        0.00
  N_5110               JUNCTION     0.00     0.00   300.32     0  00:00        0.00
  N_4881               JUNCTION     0.00     0.00   302.10     0  00:00        0.00
  N_4882               JUNCTION     0.00     0.00   303.97     0  00:00        0.00
  N_4883               JUNCTION     0.00     0.00   305.26     0  00:00        0.00
  N_4884               JUNCTION     0.00     0.00   305.94     0  00:00        0.00
  N_4901               JUNCTION     0.00     0.00   307.41     0  00:00        0.00
  N_4890               JUNCTION     0.01     0.12   305.81     0  02:12        0.12
  N_4891               JUNCTION     0.03     0.26   306.41     0  02:12        0.26
  N_4902               JUNCTION     0.02     0.19   305.82     0  02:13        0.19
  N_5114               JUNCTION     0.03     0.27   306.27     0  02:14        0.26
  N_5077               JUNCTION     0.00     0.00   299.79     0  00:00        0.00
  N_5078               JUNCTION     0.01     0.17   299.62     0  02:06        0.17
  N_5080               JUNCTION     0.00     0.00   301.73     0  00:00        0.00
  N_5079               JUNCTION     0.01     0.12   301.80     0  02:06        0.12
[...]
  L4026                   1.00   0.04  0.00  0.00  0.96  0.00  0.00  0.00  0.96  0.00
  L4025                   1.00   0.04  0.00  0.00  0.96  0.00  0.00  0.00  0.84  0.00
  L4024                   1.00   0.04  0.00  0.00  0.96  0.00  0.00  0.00  0.00  0.00
  L4023                   1.00   0.04  0.00  0.00  0.96  0.00  0.00  0.00  0.94  0.00
  L4022                   1.00   0.04  0.00  0.00  0.96  0.00  0.00  0.00  0.01  0.00
  L4020                   1.00   0.03  0.02  0.00  0.95  0.00  0.00  0.00  0.85  0.00
  L40212                  1.00   0.04  0.00  0.00  0.96  0.00  0.00  0.00  0.00  0.00
  L4018                   1.00   0.03  0.00  0.00  0.97  0.00  0.00  0.00  0.00  0.00
  L40175                  1.00   0.03  0.00  0.00  0.97  0.00  0.00  0.00  0.83  0.00
  L4254                   1.00   0.04  0.01  0.00  0.95  0.00  0.00  0.00  0.00  0.00
  L4617                   1.00   0.99  0.01  0.00  0.00  0.00  0.00  0.00  0.00  0.00
  L40382                  1.00   0.05  0.00  0.00  0.95  0.00  0.00  0.00  0.93  0.00
  L46162                  5.54   0.41  0.58  0.00  0.01  0.00  0.00  0.00  0.91  0.00
  L5161                   1.00   0.04  0.00  0.00  0.79  0.17  0.00  0.00  0.02  0.00
  L49952                 12.70   0.03  0.74  0.00  0.23  0.00  0.00  0.00  0.96  0.00
  L42582                  1.00   0.03  0.32  0.00  0.65  0.00  0.00  0.00  0.94  0.00
  L4262                   1.00   1.00  0.00  0.00  0.00  0.00  0.00  0.00  0.00  0.00
  L4263                   1.00   1.00  0.00  0.00  0.00  0.00  0.00  0.00  0.00  0.00
  L4034                   1.00   0.06  0.00  0.00  0.94  0.00  0.00  0.00  0.74  0.00
  L4256                   1.00   0.03  0.00  0.00  0.97  0.00  0.00  0.00  0.96  0.00
  L4997                   1.00   1.00  0.00  0.00  0.00  0.00  0.00  0.00  0.00  0.00
  L4998                   1.00   1.00  0.00  0.00  0.00  0.00  0.00  0.00  0.00  0.00
  L4999                   1.00   1.00  0.00  0.00  0.00  0.00  0.00  0.00  0.00  0.00
  L42663                  1.00   1.00  0.00  0.00  0.00  0.00  0.00  0.00  0.00  0.00
  L4620                   1.00   1.00  0.00  0.00  0.00  0.00  0.00  0.00  0.00  0.00
  L4610                   1.00   0.31  0.00  0.00  0.69  0.00  0.00  0.00  0.02  0.00
  L4608                   1.00   0.36  0.13  0.00  0.51  0.00  0.00  0.00  0.69  0.00
  L4609                   1.00   0.45  0.05  0.00  0.50  0.00  0.00  0.00  0.00  0.00
  L4606                   1.00   0.26  0.06  0.00  0.67  0.00  0.00  0.00  0.77  0.00
  L4243                   1.70   0.42  0.09  0.00  0.49  0.00  0.00  0.00  0.49  0.00
  L42421                  1.00   0.03  0.24  0.00  0.73  0.00  0.00  0.00  0.40  0.00
  L42422                  1.00   0.40  0.01  0.00  0.58  0.00  0.00  0.01  0.40  0.00
  L5195                   1.43   0.99  0.01  0.00  0.00  0.00  0.00  0.00  0.00  0.00
  L5194                   1.00   0.64  0.03  0.00  0.33  0.00  0.00  0.00  0.00  0.00
  L5208                   1.00   0.49  0.00  0.00  0.51  0.00  0.00  0.00  0.00  0.00
  L51921                  1.00   0.40  0.16  0.00  0.44  0.00  0.00  0.00  0.92  0.00
  L51922                  1.00   0.40  0.12  0.00  0.47  0.00  0.00  0.00  0.95  0.00
  L52092                  1.00   0.49  0.11  0.00  0.39  0.01  0.00  0.00  0.95  0.00
  L49912                  1.00   0.38  0.06  0.00  0.56  0.00  0.00  0.00  0.86  0.00
  L52182                  1.00   0.04  0.73  0.00  0.23  0.00  0.00  0.00  0.96  0.00
  L49891                  1.00   0.37  0.01  0.00  0.62  0.00  0.00  0.00  0.21  0.00
  L49892                  2.85   0.37  0.45  0.00  0.18  0.00  0.00  0.00  0.55  0.00
  L4598                   1.00   0.28  0.24  0.00  0.47  0.01  0.00  0.00  0.94  0.00
  L49842                  2.38   0.04  0.76  0.00  0.20  0.00  0.00  0.00  0.94  0.00
  L49861                  4.97   0.03  0.78  0.00  0.19  0.00  0.00  0.00  0.86  0.00
  L5199                   1.00   0.04  0.00  0.00  0.82  0.15  0.00  0.00  0.00  0.00
  L51561                  1.00   0.71  0.29  0.00  0.00  0.00  0.00  0.00  0.00  0.00
  L5197                   1.00   0.66  0.00  0.00  0.34  0.00  0.00  0.00  0.00  0.00
  L5215                   1.00   1.00  0.00  0.00  0.00  0.00  0.00  0.00  0.00  0.00
  L51562                  1.00   0.70  0.04  0.00  0.21  0.05  0.00  0.00  0.05  0.00
  L5186                   1.00   0.81  0.01  0.00  0.18  0.00  0.00  0.00  0.40  0.00
  L5183                   1.00   0.03  0.76  0.00  0.21  0.00  0.00  0.00  0.95  0.00
  L5184                   1.00   0.79  0.01  0.00  0.17  0.02  0.00  0.00  0.65  0.00
  L52141                  1.00   1.00  0.00  0.00  0.00  0.00  0.00  0.00  0.00  0.00
  L52142                  1.00   0.60  0.03  0.00  0.34  0.03  0.00  0.00  0.95  0.00
  L5213                   1.00   0.60  0.00  0.00  0.39  0.01  0.00  0.00  0.57  0.00
  L49862                  1.16   0.03  0.00  0.00  0.97  0.00  0.00  0.00  0.00  0.00
  L4985                   1.00   0.03  0.00  0.00  0.97  0.00  0.00  0.00  0.00  0.00
  L45974                  1.00   0.03  0.00  0.00  0.81  0.00  0.00  0.16  0.08  0.00
  L4059                   1.00   1.00  0.00  0.00  0.00  0.00  0.00  0.00  0.00  0.00
  L4058                   1.00   1.00  0.00  0.00  0.00  0.00  0.00  0.00  0.00  0.00
  L4057                   1.00   1.00  0.00  0.00  0.00  0.00  0.00  0.00  0.00  0.00
  L4056                   2.01   1.00  0.00  0.00  0.00  0.00  0.00  0.00  0.00  0.00
  L4096                   1.00   1.00  0.00  0.00  0.00  0.00  0.00  0.00  0.00  0.00
  L4095                   1.00   1.00  0.00  0.00  0.00  0.00  0.00  0.00  0.00  0.00
  L4094                   1.23   1.00  0.00  0.00  0.00  0.00  0.00  0.00  0.00  0.00
  L4054                   1.00   1.00  0.00  0.00  0.00  0.00  0.00  0.00  0.00  0.00
  L4053                   2.46   1.00  0.00  0.00  0.00  0.00  0.00  0.00  0.00  0.00
  L5143                   1.00   1.00  0.00  0.00  0.00  0.00  0.00  0.00  0.00  0.00
  L49782                  1.00   0.44  0.56  0.00  0.00  0.00  0.00  0.00  0.00  0.00
  2                       1.00   0.04  0.00  0.00  0.95  0.00  0.00  0.01  0.87  0.00
  3                       1.00   0.04  0.01  0.00  0.95  0.00  0.00  0.00  0.00  0.00
  4                       1.00   0.05  0.00  0.00  0.02  0.00  0.00  0.92  0.02  0.00
  
  
  *************************
  Conduit Surcharge Summary
  *************************
  
  ----------------------------------------------------------------------------
                                                           Hours        Hours 
                         --------- Hours Full --------   Above Full   Capacity
  Conduit                Both Ends  Upstream  Dnstream   Normal Flow   Limited
  ----------------------------------------------------------------------------
  L39891                      0.01      0.21      0.01      0.45         0.01
  L3990                       0.01      0.01      0.01      0.23         0.01
  L39921                      0.24      0.24      0.28      0.32         0.01
  L41651                      0.01      0.01      0.01      0.16         0.01
  L45342                      0.01      0.01      0.56      0.01         0.01
  L45353                      0.01      0.01      0.56      0.01         0.01
  L3993                       0.01      0.01      0.17      0.01         0.01
  L4917                       0.01      0.53      0.01      0.39         0.01
  L39421                      0.01      0.01      7.33      0.01         0.01
  L39561                      2.81      2.81      3.00      0.22         0.22
  L43001                      0.01      0.01      0.19      0.01         0.01
  L43002                      0.01      0.01      0.14      0.01         0.01
  L39552                      0.01      0.01      0.01      0.03         0.01
  L40611                      0.01      0.01     23.15      0.01         0.01
  L3957                       0.01      0.01      0.01      0.58         0.01
  L3958                       0.01      0.01      0.01      0.53         0.01
  L3959                       0.01      0.01      0.01      0.32         0.01
  L39601                      0.31      0.56      0.31      0.83         0.31
  L39602                      2.69      3.16      2.69      3.32         2.69
  L40781                      2.15      2.15      2.27      0.01         0.01
  L40782                      2.53      2.53      3.48      0.01         0.01
  L43501                      0.73      0.73      1.23      0.01         0.01
  L43502                      0.75      0.75      1.11      0.01         0.01
  L43503                      0.48      0.48      0.90      0.01         0.01
  L43504                      0.61      0.61     21.83      0.01         0.01
  L43505                      1.44      1.44      2.29      0.01         0.01
  L40801                      0.21      0.21     21.84      0.01         0.01
  L43531                      0.55      0.55      1.06      0.01         0.01
  L4354                       0.01      0.01      0.62      0.01         0.01
  L40701                      0.41      0.41      0.50      0.01         0.01
  L4069                       0.25      0.25      0.57      0.01         0.01
  L40713                      0.01      0.01      0.17      0.01         0.01
  L40702                      0.50      1.34      0.50      1.44         0.50
  L4332                       0.94      0.94      1.03      0.01         0.01
  L43331                      0.59      0.59      1.08      0.01         0.01
  L4706                       0.35      0.35      0.61      0.01         0.01
  L5029                       0.01      0.01      0.05      0.01         0.01
  L43351                      0.01      0.01     21.84      0.01         0.01
  L43352                      0.52      0.52      0.65      0.01         0.01
  L43363                      0.27      0.27      0.51      0.01         0.01
  L43364                      0.01      0.01      0.10      0.01         0.01
  L4715                       0.21      0.21      0.29      0.09         0.01
  L40913                      0.01      0.01      1.18      0.01         0.01
  L40891                      0.01      0.01      0.33      0.01         0.01
  L40881                      0.38      0.38      0.65      0.01         0.01
  L40871                      0.67      0.67      0.70      0.14         0.09
  L40872                      0.41      0.41      0.80      0.01         0.01
  L40861                      0.77      0.77      1.04      0.01         0.01
  L4083                       1.34      1.34      1.47      0.01         0.01
  L40811                      0.01      0.01     21.77      0.01         0.01
  L43681                      0.01      0.01     21.88      0.01         0.01
  L40821                      1.19      1.19      1.41      0.01         0.01
  L40812                      1.41      1.41      1.48      0.01         0.01
  L40813                      1.31      1.31      2.01      0.01         0.01
  L43682                      0.01      0.01     21.88      0.01         0.01
  L40802                      1.62      1.62      2.17      0.01         0.01
  L40803                      0.01      0.01     21.84      0.01         0.01
  L40804                      0.01      0.01     21.84      0.01         0.01
  L40791                      1.59      1.59      2.53      0.01         0.01
  L40792                      0.35      0.35     21.87      0.01         0.01
  L40793                      0.34      0.34     21.87      0.01         0.01
  L39771                      0.42      0.56      0.42      1.05         0.42
  L3976                       0.01      0.51      0.01      1.28         0.01
  L39711                      0.01      0.01      0.01      0.22         0.01
  L47071                      0.26      0.26      0.45      0.01         0.01
  L47081                      0.01      0.01      0.27      0.01         0.01
  L47082                      0.05      0.05      0.28      0.01         0.01
  L40851                      1.06      1.08      1.12      0.21         0.15
  L40843                      1.12      1.12      1.36      0.01         0.01
  L40853                      0.88      0.88     21.90      0.01         0.01
  L4725                       0.01      0.01     22.00      0.01         0.01
  L4926                       0.01      0.01      0.01      0.19         0.01
  L4920                       0.01      0.01      0.01      0.35         0.01
  L4946                       0.01      0.01      0.37      0.01         0.01
  L4953                       0.01      0.01      0.01      0.22         0.01
  L4955                       0.01      0.01      0.19      0.29         0.01
  L4944                       0.01      0.01      0.01      0.17         0.01
  L4501                       0.01      3.67      0.01      3.73         0.01
  L44871                      0.01      0.01      0.01      0.83         0.01
  L41542                      0.01      0.01      0.96      0.01         0.01
  L4123                       0.01      0.09      0.01      0.23         0.01
  L43506                      0.54      0.54      1.03      0.01         0.01
  L40632                      0.01      0.01      3.15      0.01         0.01
  L39423                      0.01      0.01      3.24      0.01         0.01
  L43003                      0.01      0.01      0.30      0.01         0.01
  L43004                      0.01      0.01      0.22      0.01         0.01
  L3966                       0.01      0.01      0.01      0.77         0.01
  L39783                      1.16      1.55      1.16      2.60         1.16
  L3964                       0.01      0.01      0.01      0.25         0.01
  L4792                       0.01      0.51      0.01      0.78         0.01
  L39871                      0.01      0.19      0.01      1.11         0.01
  L3941                       0.01      0.01      0.01      0.67         0.01
  L4363                       0.57      0.57      0.83      0.01         0.01
  L41682                      0.01      0.01      0.01      0.39         0.01
  L42992                      0.01      0.01      0.01      0.08         0.01
  L39482                      0.47      0.47      1.71      0.01         0.01
  L4044                       0.01      0.01      0.47      0.01         0.01
  L39512                      0.01      0.01      1.12      0.01         0.01
  L40844                      0.52      0.52      1.42      0.01         0.01
  L40862                      0.01      0.01      0.62      0.01         0.01
  L43683                      0.84      0.84      1.18      0.01         0.01
  L4369                       0.33      0.33      0.84      0.01         0.01
  L40805                      0.98      0.98      3.21      0.01         0.01
  L43641                      0.01      0.01      0.48      0.01         0.01
  L3932                       1.57      1.89      1.57      2.14         1.57
  L3923                       0.01      3.16      0.01      4.00         0.01
  L3982                       0.01      1.79      0.01      2.13         0.01
  L4036                       0.14      0.14      0.27      0.01         0.01
  L40171                      3.00      3.00      3.62      0.01         0.01
  L4987                       0.68      0.68      2.43      0.01         0.01
  L5205                       0.01      0.01     22.65      0.01         0.01
  L3933                       0.01      1.83      0.01      2.61         0.01
  L3924                       0.01      0.01      2.54      0.01         0.01
  L4197                       0.01      0.39      0.01      0.60         0.01
  L4581                       0.01      0.01      0.57      0.62         0.01
  L45021                      0.01      0.01      0.48      0.01         0.01
  L44981                      0.01      0.01      0.16      0.01         0.01
  L51703                      0.01      0.01     22.49      0.01         0.01
  L4508                       0.01      0.01      3.42      0.01         0.01
  L45061                      0.01      0.72      0.01      0.57         0.01
  L40211                      0.01      0.01      0.52      0.01         0.01
  L40172                      2.51      2.51     14.14      0.01         0.01
  L40173                      0.01      0.01      1.98      0.01         0.01
  L4244                       2.91      2.91      3.21      0.01         0.01
  L49911                      0.01      0.01      0.17      0.01         0.01
  L3934                       0.01      0.01      1.55      0.01         0.01
  L4504                       0.01      0.01     21.79      0.01         0.01
  L43121                      0.01      0.01      0.03      0.01         0.01
  L43332                      0.02      0.02      0.18      0.01         0.01
  L43333                      0.01      0.01      0.41      0.01         0.01
  L40301                      0.01      0.01      0.57      0.01         0.01
  L43771                      0.01      0.01      0.48      0.01         0.01
  L43772                      0.01      0.01      0.69      0.01         0.01
  L43702                      0.01      0.01      0.31      0.01         0.01
  L47072                      0.01      0.01     21.83      0.01         0.01
  L47073                      0.01      0.01     21.83      0.01         0.01
  L4352                       1.07      1.07      1.35      0.01         0.01
  L4351                       1.19      1.19      1.48      0.01         0.01
  L4334                       0.64      0.64      0.68      0.01         0.01
  L43334                      0.79      0.79      0.86      0.01         0.01
  L3967                       0.01      0.01      0.01      0.13         0.01
  L4389                       0.01      0.01      0.31      0.01         0.01
  L41543                      0.67      0.67      2.60      0.01         0.01
  L4942                       0.01      0.01      0.21      0.04         0.01
  L40896                      0.01      0.01      0.46      0.01         0.01
  L39912                      0.18      0.27      0.18      0.56         0.18
  L41672                      0.01      0.01      0.01      0.05         0.01
  L41663                      0.01      0.01      0.01      0.01         0.01
  L45332                      0.01      0.01      0.43      0.01         0.01
  L4384                       0.01      0.01      0.60      0.01         0.01
  L40863                      0.70      0.70      1.19      0.01         0.01
  L4362                       0.73      0.73      0.97      0.01         0.01
  L4965                       0.08      0.08      0.18      0.01         0.01
  L4966                       0.01      0.01      0.29      0.01         0.01
  L4039                       0.01      0.01     22.41      0.01         0.01
  L4497                       0.01      0.63      0.01      0.73         0.01
  L4499                       0.61      0.61      0.86      0.01         0.01
  L42151                      0.51      0.51      2.01      0.01         0.01
  L45973                      2.86      2.86      3.47      0.01         0.01
  L40175                      0.01      0.01      3.84      0.01         0.01
  L4606                       0.01      0.01      2.71      0.01         0.01
  L42421                      2.71      2.71      3.00      0.01         0.01
  L42422                      0.01      0.01      1.78      0.01         0.01
  L49912                      0.01      0.01      0.17      0.01         0.01
  L49892                      0.53      0.53      3.19      0.01         0.01
  L49842                      0.01      0.01      4.09      0.01         0.01
  L49861                      0.83      0.83      9.70      0.01         0.01
  

  Analysis begun on:  Fri Nov 29 10:43:49 2019
  Analysis ended on:  Fri Nov 29 10:45:27 2019
  Total elapsed time: 00:01:38