
  EPA STORM WATER MANAGEMENT MODEL - VERSION 5.1 (Build 5.1.013)
  --------------------------------------------------------------

  Bustarviejo 
  Situación actual 
  Hipótesis 2: Caudal máximo. 
  
  WARNING 08: elevation drop exceeds length for Conduit 31082
  WARNING 04: minimum elevation drop used for Conduit 51392
  WARNING 04: minimum elevation drop used for Conduit 517010
  WARNING 08: elevation drop exceeds length for Conduit 222
  WARNING 08: elevation drop exceeds length for Conduit 215113
  WARNING 04: minimum elevation drop used for Conduit ORIFICIO2
  WARNING 02: maximum depth increased for Node P.24NJ-430
  WARNING 02: maximum depth increased for Node 53412
  
  *********************************************************
  NOTE: The summary statistics displayed in this report are
  based on results found at every computational time step,  
  not just on results from each reporting time step.
  *********************************************************
  
  ****************
  Analysis Options
  ****************
  Flow Units ............... CMS
  Process Models:
    Rainfall/Runoff ........ YES
    RDII ................... NO
    Snowmelt ............... NO
    Groundwater ............ NO
    Flow Routing ........... YES
    Ponding Allowed ........ NO
    Water Quality .......... NO
  Infiltration Method ...... CURVE_NUMBER
  Flow Routing Method ...... DYNWAVE
  Surcharge Method ......... EXTRAN
  Starting Date ............ 05/01/2013 00:00:00
  Ending Date .............. 05/01/2013 06:00:00
  Antecedent Dry Days ...... 5.0
  Report Time Step ......... 00:00:30
  Wet Time Step ............ 00:00:30
  Dry Time Step ............ 00:00:30
  Routing Time Step ........ 5.00 sec
  Variable Time Step ....... YES
  Maximum Trials ........... 8
  Number of Threads ........ 1
  Head Tolerance ........... 0.001524 m
  
  
  **************************        Volume         Depth
  Runoff Quantity Continuity     hectare-m            mm
  **************************     ---------       -------
  Total Precipitation ......         0.000         0.000
  Evaporation Loss .........         0.000         0.000
  Infiltration Loss ........         0.000         0.000
  Surface Runoff ...........         0.000         0.000
  Final Storage ............         0.000         0.000
  Continuity Error (%) .....         0.000
  
  
  **************************        Volume        Volume
  Flow Routing Continuity        hectare-m      10^6 ltr
  **************************     ---------     ---------
  Dry Weather Inflow .......         0.000         0.000
  Wet Weather Inflow .......         0.000         0.000
  Groundwater Inflow .......         0.000         0.000
  RDII Inflow ..............         0.000         0.000
  External Inflow ..........         0.000         0.000
  External Outflow .........         0.000         0.000
  Flooding Loss ............         0.000         0.000
  Evaporation Loss .........         0.000         0.000
  Exfiltration Loss ........         0.000         0.000
  Initial Stored Volume ....         0.000         0.000
  Final Stored Volume ......         0.000         0.000
  Continuity Error (%) .....         0.000
  
  
  ***************************
  Time-Step Critical Elements
  ***************************
  None
  
  
  ********************************
  Highest Flow Instability Indexes
  ********************************
  All links are stable.
  
  
  ***************************
  Subcatchment Runoff Summary
  ***************************
  
  ------------------------------------------------------------------------------------------------------------------------------
                            Total      Total      Total      Total     Imperv       Perv      Total       Total     Peak  Runoff
                           Precip      Runon       Evap      Infil     Runoff     Runoff     Runoff      Runoff   Runoff   Coeff
  Subcatchment                 mm         mm         mm         mm         mm         mm         mm    10^6 ltr      CMS
  ------------------------------------------------------------------------------------------------------------------------------
  PV1                        0.00       0.00       0.00       0.00       0.00       0.00       0.00        0.00     0.00   0.000
  PV2                        0.00       0.00       0.00       0.00       0.00       0.00       0.00        0.00     0.00   0.000
  PV3                        0.00       0.00       0.00       0.00       0.00       0.00       0.00        0.00     0.00   0.000
  PV4                        0.00       0.00       0.00       0.00       0.00       0.00       0.00        0.00     0.00   0.000
  PV5                        0.00       0.00       0.00       0.00       0.00       0.00       0.00        0.00     0.00   0.000
  PV6                        0.00       0.00       0.00       0.00       0.00       0.00       0.00        0.00     0.00   0.000
  PV7                        0.00       0.00       0.00       0.00       0.00       0.00       0.00        0.00     0.00   0.000
  PV8                        0.00       0.00       0.00       0.00       0.00       0.00       0.00        0.00     0.00   0.000
  PV9                        0.00       0.00       0.00       0.00       0.00       0.00       0.00        0.00     0.00   0.000
  PV10                       0.00       0.00       0.00       0.00       0.00       0.00       0.00        0.00     0.00   0.000
  PV11                       0.00       0.00       0.00       0.00       0.00       0.00       0.00        0.00     0.00   0.000
  PV12                       0.00       0.00       0.00       0.00       0.00       0.00       0.00        0.00     0.00   0.000
  PV13                       0.00       0.00       0.00       0.00       0.00       0.00       0.00        0.00     0.00   0.000
  PV14                       0.00       0.00       0.00       0.00       0.00       0.00       0.00        0.00     0.00   0.000
  PV15                       0.00       0.00       0.00       0.00       0.00       0.00       0.00        0.00     0.00   0.000
  PV16                       0.00       0.00       0.00       0.00       0.00       0.00       0.00        0.00     0.00   0.000
  PV17                       0.00       0.00       0.00       0.00       0.00       0.00       0.00        0.00     0.00   0.000
  PV18                       0.00       0.00       0.00       0.00       0.00       0.00       0.00        0.00     0.00   0.000
  PV19                       0.00       0.00       0.00       0.00       0.00       0.00       0.00        0.00     0.00   0.000
  PV20                       0.00       0.00       0.00       0.00       0.00       0.00       0.00        0.00     0.00   0.000
  PV21                       0.00       0.00       0.00       0.00       0.00       0.00       0.00        0.00     0.00   0.000
  PV22                       0.00       0.00       0.00       0.00       0.00       0.00       0.00        0.00     0.00   0.000
  PV23                       0.00       0.00       0.00       0.00       0.00       0.00       0.00        0.00     0.00   0.000
  PV24                       0.00       0.00       0.00       0.00       0.00       0.00       0.00        0.00     0.00   0.000
  PV25                       0.00       0.00       0.00       0.00       0.00       0.00       0.00        0.00     0.00   0.000
  PV26                       0.00       0.00       0.00       0.00       0.00       0.00       0.00        0.00     0.00   0.000
  PV27                       0.00       0.00       0.00       0.00       0.00       0.00       0.00        0.00     0.00   0.000
  PV28                       0.00       0.00       0.00       0.00       0.00       0.00       0.00        0.00     0.00   0.000
  PV29                       0.00       0.00       0.00       0.00       0.00       0.00       0.00        0.00     0.00   0.000
  PV30                       0.00       0.00       0.00       0.00       0.00       0.00       0.00        0.00     0.00   0.000
  PV31                       0.00       0.00       0.00       0.00       0.00       0.00       0.00        0.00     0.00   0.000
  PV32                       0.00       0.00       0.00       0.00       0.00       0.00       0.00        0.00     0.00   0.000
  PV33                       0.00       0.00       0.00       0.00       0.00       0.00       0.00        0.00     0.00   0.000
  PV34                       0.00       0.00       0.00       0.00       0.00       0.00       0.00        0.00     0.00   0.000
  PV35                       0.00       0.00       0.00       0.00       0.00       0.00       0.00        0.00     0.00   0.000
  PV36                       0.00       0.00       0.00       0.00       0.00       0.00       0.00        0.00     0.00   0.000
  PV37                       0.00       0.00       0.00       0.00       0.00       0.00       0.00        0.00     0.00   0.000
  PV38                       0.00       0.00       0.00       0.00       0.00       0.00       0.00        0.00     0.00   0.000
  PV39                       0.00       0.00       0.00       0.00       0.00       0.00       0.00        0.00     0.00   0.000
  PV40                       0.00       0.00       0.00       0.00       0.00       0.00       0.00        0.00     0.00   0.000
  PV41                       0.00       0.00       0.00       0.00       0.00       0.00       0.00        0.00     0.00   0.000
  PV42                       0.00       0.00       0.00       0.00       0.00       0.00       0.00        0.00     0.00   0.000
  PV43                       0.00       0.00       0.00       0.00       0.00       0.00       0.00        0.00     0.00   0.000
  PV44                       0.00       0.00       0.00       0.00       0.00       0.00       0.00        0.00     0.00   0.000
  PV45                       0.00       0.00       0.00       0.00       0.00       0.00       0.00        0.00     0.00   0.000
  PV46                       0.00       0.00       0.00       0.00       0.00       0.00       0.00        0.00     0.00   0.000
  PV47                       0.00       0.00       0.00       0.00       0.00       0.00       0.00        0.00     0.00   0.000
  PV48                       0.00       0.00       0.00       0.00       0.00       0.00       0.00        0.00     0.00   0.000
  PV49                       0.00       0.00       0.00       0.00       0.00       0.00       0.00        0.00     0.00   0.000
  PV50                       0.00       0.00       0.00       0.00       0.00       0.00       0.00        0.00     0.00   0.000
  PV51                       0.00       0.00       0.00       0.00       0.00       0.00       0.00        0.00     0.00   0.000
  PV52                       0.00       0.00       0.00       0.00       0.00       0.00       0.00        0.00     0.00   0.000
  PV53                       0.00       0.00       0.00       0.00       0.00       0.00       0.00        0.00     0.00   0.000
  PV54                       0.00       0.00       0.00       0.00       0.00       0.00       0.00        0.00     0.00   0.000
  PV55                       0.00       0.00       0.00       0.00       0.00       0.00       0.00        0.00     0.00   0.000
  PV56                       0.00       0.00       0.00       0.00       0.00       0.00       0.00        0.00     0.00   0.000
  PV57                       0.00       0.00       0.00       0.00       0.00       0.00       0.00        0.00     0.00   0.000
  PV58                       0.00       0.00       0.00       0.00       0.00       0.00       0.00        0.00     0.00   0.000
  PV59                       0.00       0.00       0.00       0.00       0.00       0.00       0.00        0.00     0.00   0.000
  PV60                       0.00       0.00       0.00       0.00       0.00       0.00       0.00        0.00     0.00   0.000
  PV61                       0.00       0.00       0.00       0.00       0.00       0.00       0.00        0.00     0.00   0.000
  PV62                       0.00       0.00       0.00       0.00       0.00       0.00       0.00        0.00     0.00   0.000
  PV63                       0.00       0.00       0.00       0.00       0.00       0.00       0.00        0.00     0.00   0.000
  PV64                       0.00       0.00       0.00       0.00       0.00       0.00       0.00        0.00     0.00   0.000
  PV65                       0.00       0.00       0.00       0.00       0.00       0.00       0.00        0.00     0.00   0.000
  PV66                       0.00       0.00       0.00       0.00       0.00       0.00       0.00        0.00     0.00   0.000
  PV67                       0.00       0.00       0.00       0.00       0.00       0.00       0.00        0.00     0.00   0.000
  PV68                       0.00       0.00       0.00       0.00       0.00       0.00       0.00        0.00     0.00   0.000
  PV69                       0.00       0.00       0.00       0.00       0.00       0.00       0.00        0.00     0.00   0.000
  PV70                       0.00       0.00       0.00       0.00       0.00       0.00       0.00        0.00     0.00   0.000
  PV71                       0.00       0.00       0.00       0.00       0.00       0.00       0.00        0.00     0.00   0.000
  PV72                       0.00       0.00       0.00       0.00       0.00       0.00       0.00        0.00     0.00   0.000
  PV73                       0.00       0.00       0.00       0.00       0.00       0.00       0.00        0.00     0.00   0.000
  PV74A                      0.00       0.00       0.00       0.00       0.00       0.00       0.00        0.00     0.00   0.000
  PV74B                      0.00       0.00       0.00       0.00       0.00       0.00       0.00        0.00     0.00   0.000
  PV75                       0.00       0.00       0.00       0.00       0.00       0.00       0.00        0.00     0.00   0.000
  PV76                       0.00       0.00       0.00       0.00       0.00       0.00       0.00        0.00     0.00   0.000
  PV77                       0.00       0.00       0.00       0.00       0.00       0.00       0.00        0.00     0.00   0.000
  PV78                       0.00       0.00       0.00       0.00       0.00       0.00       0.00        0.00     0.00   0.000
  PV79                       0.00       0.00       0.00       0.00       0.00       0.00       0.00        0.00     0.00   0.000
  PV80                       0.00       0.00       0.00       0.00       0.00       0.00       0.00        0.00     0.00   0.000
  PV81                       0.00       0.00       0.00       0.00       0.00       0.00       0.00        0.00     0.00   0.000
  PV82                       0.00       0.00       0.00       0.00       0.00       0.00       0.00        0.00     0.00   0.000
  PV83                       0.00       0.00       0.00       0.00       0.00       0.00       0.00        0.00     0.00   0.000
  PV84                       0.00       0.00       0.00       0.00       0.00       0.00       0.00        0.00     0.00   0.000
  PV85                       0.00       0.00       0.00       0.00       0.00       0.00       0.00        0.00     0.00   0.000
  PV86                       0.00       0.00       0.00       0.00       0.00       0.00       0.00        0.00     0.00   0.000
  PV87                       0.00       0.00       0.00       0.00       0.00       0.00       0.00        0.00     0.00   0.000
  PV88                       0.00       0.00       0.00       0.00       0.00       0.00       0.00        0.00     0.00   0.000
  PV89                       0.00       0.00       0.00       0.00       0.00       0.00       0.00        0.00     0.00   0.000
  PV90                       0.00       0.00       0.00       0.00       0.00       0.00       0.00        0.00     0.00   0.000
  PV91                       0.00       0.00       0.00       0.00       0.00       0.00       0.00        0.00     0.00   0.000
  PV92                       0.00       0.00       0.00       0.00       0.00       0.00       0.00        0.00     0.00   0.000
  PV93                       0.00       0.00       0.00       0.00       0.00       0.00       0.00        0.00     0.00   0.000
  PV94                       0.00       0.00       0.00       0.00       0.00       0.00       0.00        0.00     0.00   0.000
  PV95                       0.00       0.00       0.00       0.00       0.00       0.00       0.00        0.00     0.00   0.000
  PV96                       0.00       0.00       0.00       0.00       0.00       0.00       0.00        0.00     0.00   0.000
  PV97                       0.00       0.00       0.00       0.00       0.00       0.00       0.00        0.00     0.00   0.000
  PV98                       0.00       0.00       0.00       0.00       0.00       0.00       0.00        0.00     0.00   0.000
  PV99                       0.00       0.00       0.00       0.00       0.00       0.00       0.00        0.00     0.00   0.000
  PV100                      0.00       0.00       0.00       0.00       0.00       0.00       0.00        0.00     0.00   0.000
  PV101                      0.00       0.00       0.00       0.00       0.00       0.00       0.00        0.00     0.00   0.000
  PV102                      0.00       0.00       0.00       0.00       0.00       0.00       0.00        0.00     0.00   0.000
  PV103                      0.00       0.00       0.00       0.00       0.00       0.00       0.00        0.00     0.00   0.000
  PV104                      0.00       0.00       0.00       0.00       0.00       0.00       0.00        0.00     0.00   0.000
  PV105                      0.00       0.00       0.00       0.00       0.00       0.00       0.00        0.00     0.00   0.000
  PV106                      0.00       0.00       0.00       0.00       0.00       0.00       0.00        0.00     0.00   0.000
  PV107                      0.00       0.00       0.00       0.00       0.00       0.00       0.00        0.00     0.00   0.000
  PB1                        0.00       0.00       0.00       0.00       0.00       0.00       0.00        0.00     0.00   0.000
  PB2                        0.00       0.00       0.00       0.00       0.00       0.00       0.00        0.00     0.00   0.000
  PB3                        0.00       0.00       0.00       0.00       0.00       0.00       0.00        0.00     0.00   0.000
  PB4                        0.00       0.00       0.00       0.00       0.00       0.00       0.00        0.00     0.00   0.000
  PB5                        0.00       0.00       0.00       0.00       0.00       0.00       0.00        0.00     0.00   0.000
  PB6                        0.00       0.00       0.00       0.00       0.00       0.00       0.00        0.00     0.00   0.000
  PB7                        0.00       0.00       0.00       0.00       0.00       0.00       0.00        0.00     0.00   0.000
  PB8                        0.00       0.00       0.00       0.00       0.00       0.00       0.00        0.00     0.00   0.000
  PB9                        0.00       0.00       0.00       0.00       0.00       0.00       0.00        0.00     0.00   0.000
  PB10                       0.00       0.00       0.00       0.00       0.00       0.00       0.00        0.00     0.00   0.000
  PB11                       0.00       0.00       0.00       0.00       0.00       0.00       0.00        0.00     0.00   0.000
  PB12                       0.00       0.00       0.00       0.00       0.00       0.00       0.00        0.00     0.00   0.000
  PB13                       0.00       0.00       0.00       0.00       0.00       0.00       0.00        0.00     0.00   0.000
  PB14                       0.00       0.00       0.00       0.00       0.00       0.00       0.00        0.00     0.00   0.000
  PB15                       0.00       0.00       0.00       0.00       0.00       0.00       0.00        0.00     0.00   0.000
  PB16                       0.00       0.00       0.00       0.00       0.00       0.00       0.00        0.00     0.00   0.000
  PB17                       0.00       0.00       0.00       0.00       0.00       0.00       0.00        0.00     0.00   0.000
  PB18                       0.00       0.00       0.00       0.00       0.00       0.00       0.00        0.00     0.00   0.000
  PB19                       0.00       0.00       0.00       0.00       0.00       0.00       0.00        0.00     0.00   0.000
  PB20                       0.00       0.00       0.00       0.00       0.00       0.00       0.00        0.00     0.00   0.000
  PB21                       0.00       0.00       0.00       0.00       0.00       0.00       0.00        0.00     0.00   0.000
  PB22                       0.00       0.00       0.00       0.00       0.00       0.00       0.00        0.00     0.00   0.000
  PB23                       0.00       0.00       0.00       0.00       0.00       0.00       0.00        0.00     0.00   0.000
  PB24                       0.00       0.00       0.00       0.00       0.00       0.00       0.00        0.00     0.00   0.000
  PB25                       0.00       0.00       0.00       0.00       0.00       0.00       0.00        0.00     0.00   0.000
  PB26                       0.00       0.00       0.00       0.00       0.00       0.00       0.00        0.00     0.00   0.000
  PB27                       0.00       0.00       0.00       0.00       0.00       0.00       0.00        0.00     0.00   0.000
  PB28                       0.00       0.00       0.00       0.00       0.00       0.00       0.00        0.00     0.00   0.000
  PB29                       0.00       0.00       0.00       0.00       0.00       0.00       0.00        0.00     0.00   0.000
  PB30                       0.00       0.00       0.00       0.00       0.00       0.00       0.00        0.00     0.00   0.000
  PB31                       0.00       0.00       0.00       0.00       0.00       0.00       0.00        0.00     0.00   0.000
  PB32                       0.00       0.00       0.00       0.00       0.00       0.00       0.00        0.00     0.00   0.000
  PB33                       0.00       0.00       0.00       0.00       0.00       0.00       0.00        0.00     0.00   0.000
  PB34                       0.00       0.00       0.00       0.00       0.00       0.00       0.00        0.00     0.00   0.000
  PB35                       0.00       0.00       0.00       0.00       0.00       0.00       0.00        0.00     0.00   0.000
  PB36                       0.00       0.00       0.00       0.00       0.00       0.00       0.00        0.00     0.00   0.000
  PB37A                      0.00       0.00       0.00       0.00       0.00       0.00       0.00        0.00     0.00   0.000
  PB37B                      0.00       0.00       0.00       0.00       0.00       0.00       0.00        0.00     0.00   0.000
  PB37C                      0.00       0.00       0.00       0.00       0.00       0.00       0.00        0.00     0.00   0.000
  PB37D                      0.00       0.00       0.00       0.00       0.00       0.00       0.00        0.00     0.00   0.000
  PB38                       0.00       0.00       0.00       0.00       0.00       0.00       0.00        0.00     0.00   0.000
  PB39                       0.00       0.00       0.00       0.00       0.00       0.00       0.00        0.00     0.00   0.000
  PB40                       0.00       0.00       0.00       0.00       0.00       0.00       0.00        0.00     0.00   0.000
  PB41                       0.00       0.00       0.00       0.00       0.00       0.00       0.00        0.00     0.00   0.000
  PB42                       0.00       0.00       0.00       0.00       0.00       0.00       0.00        0.00     0.00   0.000
  PB43                       0.00       0.00       0.00       0.00       0.00       0.00       0.00        0.00     0.00   0.000
  PB44                       0.00       0.00       0.00       0.00       0.00       0.00       0.00        0.00     0.00   0.000
  PB45                       0.00       0.00       0.00       0.00       0.00       0.00       0.00        0.00     0.00   0.000
  PB46                       0.00       0.00       0.00       0.00       0.00       0.00       0.00        0.00     0.00   0.000
  PB47                       0.00       0.00       0.00       0.00       0.00       0.00       0.00        0.00     0.00   0.000
  PB48                       0.00       0.00       0.00       0.00       0.00       0.00       0.00        0.00     0.00   0.000
  PB49                       0.00       0.00       0.00       0.00       0.00       0.00       0.00        0.00     0.00   0.000
  PB50                       0.00       0.00       0.00       0.00       0.00       0.00       0.00        0.00     0.00   0.000
  PB51                       0.00       0.00       0.00       0.00       0.00       0.00       0.00        0.00     0.00   0.000
  PB52                       0.00       0.00       0.00       0.00       0.00       0.00       0.00        0.00     0.00   0.000
  PB53                       0.00       0.00       0.00       0.00       0.00       0.00       0.00        0.00     0.00   0.000
  PB54                       0.00       0.00       0.00       0.00       0.00       0.00       0.00        0.00     0.00   0.000
  PB55                       0.00       0.00       0.00       0.00       0.00       0.00       0.00        0.00     0.00   0.000
  PB56                       0.00       0.00       0.00       0.00       0.00       0.00       0.00        0.00     0.00   0.000
  PB57                       0.00       0.00       0.00       0.00       0.00       0.00       0.00        0.00     0.00   0.000
  PB58                       0.00       0.00       0.00       0.00       0.00       0.00       0.00        0.00     0.00   0.000
  PB59                       0.00       0.00       0.00       0.00       0.00       0.00       0.00        0.00     0.00   0.000
  PB60                       0.00       0.00       0.00       0.00       0.00       0.00       0.00        0.00     0.00   0.000
  PB61                       0.00       0.00       0.00       0.00       0.00       0.00       0.00        0.00     0.00   0.000
  PB62                       0.00       0.00       0.00       0.00       0.00       0.00       0.00        0.00     0.00   0.000
  PB63                       0.00       0.00       0.00       0.00       0.00       0.00       0.00        0.00     0.00   0.000
  PB64                       0.00       0.00       0.00       0.00       0.00       0.00       0.00        0.00     0.00   0.000
  PB65                       0.00       0.00       0.00       0.00       0.00       0.00       0.00        0.00     0.00   0.000
  PB66                       0.00       0.00       0.00       0.00       0.00       0.00       0.00        0.00     0.00   0.000
  PB67                       0.00       0.00       0.00       0.00       0.00       0.00       0.00        0.00     0.00   0.000
  PB68                       0.00       0.00       0.00       0.00       0.00       0.00       0.00        0.00     0.00   0.000
  PB69                       0.00       0.00       0.00       0.00       0.00       0.00       0.00        0.00     0.00   0.000
  PB70                       0.00       0.00       0.00       0.00       0.00       0.00       0.00        0.00     0.00   0.000
  PB71                       0.00       0.00       0.00       0.00       0.00       0.00       0.00        0.00     0.00   0.000
  PB72                       0.00       0.00       0.00       0.00       0.00       0.00       0.00        0.00     0.00   0.000
  PB73                       0.00       0.00       0.00       0.00       0.00       0.00       0.00        0.00     0.00   0.000
  PB74                       0.00       0.00       0.00       0.00       0.00       0.00       0.00        0.00     0.00   0.000
  PB75                       0.00       0.00       0.00       0.00       0.00       0.00       0.00        0.00     0.00   0.000
  PB76                       0.00       0.00       0.00       0.00       0.00       0.00       0.00        0.00     0.00   0.000
  PB77                       0.00       0.00       0.00       0.00       0.00       0.00       0.00        0.00     0.00   0.000
  PB78                       0.00       0.00       0.00       0.00       0.00       0.00       0.00        0.00     0.00   0.000
  PB79                       0.00       0.00       0.00       0.00       0.00       0.00       0.00        0.00     0.00   0.000
  PB80                       0.00       0.00       0.00       0.00       0.00       0.00       0.00        0.00     0.00   0.000
  PB81                       0.00       0.00       0.00       0.00       0.00       0.00       0.00        0.00     0.00   0.000
  PB82                       0.00       0.00       0.00       0.00       0.00       0.00       0.00        0.00     0.00   0.000
  PB83                       0.00       0.00       0.00       0.00       0.00       0.00       0.00        0.00     0.00   0.000
  PB84                       0.00       0.00       0.00       0.00       0.00       0.00       0.00        0.00     0.00   0.000
  PB85                       0.00       0.00       0.00       0.00       0.00       0.00       0.00        0.00     0.00   0.000
  PB86                       0.00       0.00       0.00       0.00       0.00       0.00       0.00        0.00     0.00   0.000
  PB87                       0.00       0.00       0.00       0.00       0.00       0.00       0.00        0.00     0.00   0.000
  PB88                       0.00       0.00       0.00       0.00       0.00       0.00       0.00        0.00     0.00   0.000
  PB89                       0.00       0.00       0.00       0.00       0.00       0.00       0.00        0.00     0.00   0.000
  PB90                       0.00       0.00       0.00       0.00       0.00       0.00       0.00        0.00     0.00   0.000
  PB91                       0.00       0.00       0.00       0.00       0.00       0.00       0.00        0.00     0.00   0.000
  PB92                       0.00       0.00       0.00       0.00       0.00       0.00       0.00        0.00     0.00   0.000
  PB93                       0.00       0.00       0.00       0.00       0.00       0.00       0.00        0.00     0.00   0.000
  PB94                       0.00       0.00       0.00       0.00       0.00       0.00       0.00        0.00     0.00   0.000
  PB95                       0.00       0.00       0.00       0.00       0.00       0.00       0.00        0.00     0.00   0.000
  PB96                       0.00       0.00       0.00       0.00       0.00       0.00       0.00        0.00     0.00   0.000
  PB97                       0.00       0.00       0.00       0.00       0.00       0.00       0.00        0.00     0.00   0.000
  PB98                       0.00       0.00       0.00       0.00       0.00       0.00       0.00        0.00     0.00   0.000
  PB99                       0.00       0.00       0.00       0.00       0.00       0.00       0.00        0.00     0.00   0.000
  PB100                      0.00       0.00       0.00       0.00       0.00       0.00       0.00        0.00     0.00   0.000
  PB101                      0.00       0.00       0.00       0.00       0.00       0.00       0.00        0.00     0.00   0.000
  PB102                      0.00       0.00       0.00       0.00       0.00       0.00       0.00        0.00     0.00   0.000
  PB103                      0.00       0.00       0.00       0.00       0.00       0.00       0.00        0.00     0.00   0.000
  PB104                      0.00       0.00       0.00       0.00       0.00       0.00       0.00        0.00     0.00   0.000
  PB105                      0.00       0.00       0.00       0.00       0.00       0.00       0.00        0.00     0.00   0.000
  PB106                      0.00       0.00       0.00       0.00       0.00       0.00       0.00        0.00     0.00   0.000
  PB107                      0.00       0.00       0.00       0.00       0.00       0.00       0.00        0.00     0.00   0.000
  PB108                      0.00       0.00       0.00       0.00       0.00       0.00       0.00        0.00     0.00   0.000
  PB109                      0.00       0.00       0.00       0.00       0.00       0.00       0.00        0.00     0.00   0.000
  PB110                      0.00       0.00       0.00       0.00       0.00       0.00       0.00        0.00     0.00   0.000
  PB111                      0.00       0.00       0.00       0.00       0.00       0.00       0.00        0.00     0.00   0.000
  PB112                      0.00       0.00       0.00       0.00       0.00       0.00       0.00        0.00     0.00   0.000
  PB113                      0.00       0.00       0.00       0.00       0.00       0.00       0.00        0.00     0.00   0.000
  PB114                      0.00       0.00       0.00       0.00       0.00       0.00       0.00        0.00     0.00   0.000
  PB115                      0.00       0.00       0.00       0.00       0.00       0.00       0.00        0.00     0.00   0.000
  PB116                      0.00       0.00       0.00       0.00       0.00       0.00       0.00        0.00     0.00   0.000
  PB117                      0.00       0.00       0.00       0.00       0.00       0.00       0.00        0.00     0.00   0.000
  PB118A                     0.00       0.00       0.00       0.00       0.00       0.00       0.00        0.00     0.00   0.000
  PB118B                     0.00       0.00       0.00       0.00       0.00       0.00       0.00        0.00     0.00   0.000
  PB119A                     0.00       0.00       0.00       0.00       0.00       0.00       0.00        0.00     0.00   0.000
  PB119B                     0.00       0.00       0.00       0.00       0.00       0.00       0.00        0.00     0.00   0.000
  PB120                      0.00       0.00       0.00       0.00       0.00       0.00       0.00        0.00     0.00   0.000
  PB121                      0.00       0.00       0.00       0.00       0.00       0.00       0.00        0.00     0.00   0.000
  PB122                      0.00       0.00       0.00       0.00       0.00       0.00       0.00        0.00     0.00   0.000
  PB123                      0.00       0.00       0.00       0.00       0.00       0.00       0.00        0.00     0.00   0.000
  PB124                      0.00       0.00       0.00       0.00       0.00       0.00       0.00        0.00     0.00   0.000
  PB125                      0.00       0.00       0.00       0.00       0.00       0.00       0.00        0.00     0.00   0.000
  PB126                      0.00       0.00       0.00       0.00       0.00       0.00       0.00        0.00     0.00   0.000
  PB127                      0.00       0.00       0.00       0.00       0.00       0.00       0.00        0.00     0.00   0.000
  PB128                      0.00       0.00       0.00       0.00       0.00       0.00       0.00        0.00     0.00   0.000
  PB129                      0.00       0.00       0.00       0.00       0.00       0.00       0.00        0.00     0.00   0.000
  PB130                      0.00       0.00       0.00       0.00       0.00       0.00       0.00        0.00     0.00   0.000
  PB131                      0.00       0.00       0.00       0.00       0.00       0.00       0.00        0.00     0.00   0.000
  PB132                      0.00       0.00       0.00       0.00       0.00       0.00       0.00        0.00     0.00   0.000
  PB133                      0.00       0.00       0.00       0.00       0.00       0.00       0.00        0.00     0.00   0.000
  PB134                      0.00       0.00       0.00       0.00       0.00       0.00       0.00        0.00     0.00   0.000
  PB135                      0.00       0.00       0.00       0.00       0.00       0.00       0.00        0.00     0.00   0.000
  PB136                      0.00       0.00       0.00       0.00       0.00       0.00       0.00        0.00     0.00   0.000
  PB137                      0.00       0.00       0.00       0.00       0.00       0.00       0.00        0.00     0.00   0.000
  PB138                      0.00       0.00       0.00       0.00       0.00       0.00       0.00        0.00     0.00   0.000
  PB139                      0.00       0.00       0.00       0.00       0.00       0.00       0.00        0.00     0.00   0.000
  PB140                      0.00       0.00       0.00       0.00       0.00       0.00       0.00        0.00     0.00   0.000
  PB141                      0.00       0.00       0.00       0.00       0.00       0.00       0.00        0.00     0.00   0.000
  PB142                      0.00       0.00       0.00       0.00       0.00       0.00       0.00        0.00     0.00   0.000
  PB143                      0.00       0.00       0.00       0.00       0.00       0.00       0.00        0.00     0.00   0.000
  PB144                      0.00       0.00       0.00       0.00       0.00       0.00       0.00        0.00     0.00   0.000
  PB145                      0.00       0.00       0.00       0.00       0.00       0.00       0.00        0.00     0.00   0.000
  PB146                      0.00       0.00       0.00       0.00       0.00       0.00       0.00        0.00     0.00   0.000
  PB147                      0.00       0.00       0.00       0.00       0.00       0.00       0.00        0.00     0.00   0.000
  PB148                      0.00       0.00       0.00       0.00       0.00       0.00       0.00        0.00     0.00   0.000
  PB149                      0.00       0.00       0.00       0.00       0.00       0.00       0.00        0.00     0.00   0.000
  PB150                      0.00       0.00       0.00       0.00       0.00       0.00       0.00        0.00     0.00   0.000
  PB151                      0.00       0.00       0.00       0.00       0.00       0.00       0.00        0.00     0.00   0.000
  PB152                      0.00       0.00       0.00       0.00       0.00       0.00       0.00        0.00     0.00   0.000
  PB153                      0.00       0.00       0.00       0.00       0.00       0.00       0.00        0.00     0.00   0.000
  PB154                      0.00       0.00       0.00       0.00       0.00       0.00       0.00        0.00     0.00   0.000
  PB155                      0.00       0.00       0.00       0.00       0.00       0.00       0.00        0.00     0.00   0.000
  PB156                      0.00       0.00       0.00       0.00       0.00       0.00       0.00        0.00     0.00   0.000
  PB157                      0.00       0.00       0.00       0.00       0.00       0.00       0.00        0.00     0.00   0.000
  PB158                      0.00       0.00       0.00       0.00       0.00       0.00       0.00        0.00     0.00   0.000
  PB159                      0.00       0.00       0.00       0.00       0.00       0.00       0.00        0.00     0.00   0.000
  PB160                      0.00       0.00       0.00       0.00       0.00       0.00       0.00        0.00     0.00   0.000
  PB161                      0.00       0.00       0.00       0.00       0.00       0.00       0.00        0.00     0.00   0.000
  PB162                      0.00       0.00       0.00       0.00       0.00       0.00       0.00        0.00     0.00   0.000
  PB163                      0.00       0.00       0.00       0.00       0.00       0.00       0.00        0.00     0.00   0.000
  PB164                      0.00       0.00       0.00       0.00       0.00       0.00       0.00        0.00     0.00   0.000
  PB165                      0.00       0.00       0.00       0.00       0.00       0.00       0.00        0.00     0.00   0.000
  PB166                      0.00       0.00       0.00       0.00       0.00       0.00       0.00        0.00     0.00   0.000
  PB167                      0.00       0.00       0.00       0.00       0.00       0.00       0.00        0.00     0.00   0.000
  PB168                      0.00       0.00       0.00       0.00       0.00       0.00       0.00        0.00     0.00   0.000
  PB169                      0.00       0.00       0.00       0.00       0.00       0.00       0.00        0.00     0.00   0.000
  PB170                      0.00       0.00       0.00       0.00       0.00       0.00       0.00        0.00     0.00   0.000
  PB171                      0.00       0.00       0.00       0.00       0.00       0.00       0.00        0.00     0.00   0.000
  PB172                      0.00       0.00       0.00       0.00       0.00       0.00       0.00        0.00     0.00   0.000
  PB173                      0.00       0.00       0.00       0.00       0.00       0.00       0.00        0.00     0.00   0.000
  PB174                      0.00       0.00       0.00       0.00       0.00       0.00       0.00        0.00     0.00   0.000
  PB175                      0.00       0.00       0.00       0.00       0.00       0.00       0.00        0.00     0.00   0.000
  PB176                      0.00       0.00       0.00       0.00       0.00       0.00       0.00        0.00     0.00   0.000
  PB177                      0.00       0.00       0.00       0.00       0.00       0.00       0.00        0.00     0.00   0.000
  PB178                      0.00       0.00       0.00       0.00       0.00       0.00       0.00        0.00     0.00   0.000
  PB179                      0.00       0.00       0.00       0.00       0.00       0.00       0.00        0.00     0.00   0.000
  PB180                      0.00       0.00       0.00       0.00       0.00       0.00       0.00        0.00     0.00   0.000
  PB181                      0.00       0.00       0.00       0.00       0.00       0.00       0.00        0.00     0.00   0.000
  PB182                      0.00       0.00       0.00       0.00       0.00       0.00       0.00        0.00     0.00   0.000
  PB183                      0.00       0.00       0.00       0.00       0.00       0.00       0.00        0.00     0.00   0.000
  PB184                      0.00       0.00       0.00       0.00       0.00       0.00       0.00        0.00     0.00   0.000
  PB185                      0.00       0.00       0.00       0.00       0.00       0.00       0.00        0.00     0.00   0.000
  PB186                      0.00       0.00       0.00       0.00       0.00       0.00       0.00        0.00     0.00   0.000
  PB187                      0.00       0.00       0.00       0.00       0.00       0.00       0.00        0.00     0.00   0.000
  PB188                      0.00       0.00       0.00       0.00       0.00       0.00       0.00        0.00     0.00   0.000
  PB189                      0.00       0.00       0.00       0.00       0.00       0.00       0.00        0.00     0.00   0.000
  PB190                      0.00       0.00       0.00       0.00       0.00       0.00       0.00        0.00     0.00   0.000
  PB191                      0.00       0.00       0.00       0.00       0.00       0.00       0.00        0.00     0.00   0.000
  PB192                      0.00       0.00       0.00       0.00       0.00       0.00       0.00        0.00     0.00   0.000
  PB193                      0.00       0.00       0.00       0.00       0.00       0.00       0.00        0.00     0.00   0.000
  PB194                      0.00       0.00       0.00       0.00       0.00       0.00       0.00        0.00     0.00   0.000
  PB195                      0.00       0.00       0.00       0.00       0.00       0.00       0.00        0.00     0.00   0.000
  PB196                      0.00       0.00       0.00       0.00       0.00       0.00       0.00        0.00     0.00   0.000
  PB197                      0.00       0.00       0.00       0.00       0.00       0.00       0.00        0.00     0.00   0.000
  PB198                      0.00       0.00       0.00       0.00       0.00       0.00       0.00        0.00     0.00   0.000
  PB199                      0.00       0.00       0.00       0.00       0.00       0.00       0.00        0.00     0.00   0.000
  PB200                      0.00       0.00       0.00       0.00       0.00       0.00       0.00        0.00     0.00   0.000
  PB201                      0.00       0.00       0.00       0.00       0.00       0.00       0.00        0.00     0.00   0.000
  PB202                      0.00       0.00       0.00       0.00       0.00       0.00       0.00        0.00     0.00   0.000
  PB203                      0.00       0.00       0.00       0.00       0.00       0.00       0.00        0.00     0.00   0.000
  PB204                      0.00       0.00       0.00       0.00       0.00       0.00       0.00        0.00     0.00   0.000
  PB205                      0.00       0.00       0.00       0.00       0.00       0.00       0.00        0.00     0.00   0.000
  PB206                      0.00       0.00       0.00       0.00       0.00       0.00       0.00        0.00     0.00   0.000
  PB207                      0.00       0.00       0.00       0.00       0.00       0.00       0.00        0.00     0.00   0.000
  PB208                      0.00       0.00       0.00       0.00       0.00       0.00       0.00        0.00     0.00   0.000
  PB209                      0.00       0.00       0.00       0.00       0.00       0.00       0.00        0.00     0.00   0.000
  PB210A                     0.00       0.00       0.00       0.00       0.00       0.00       0.00        0.00     0.00   0.000
  PB210B                     0.00       0.00       0.00       0.00       0.00       0.00       0.00        0.00     0.00   0.000
  PB211A                     0.00       0.00       0.00       0.00       0.00       0.00       0.00        0.00     0.00   0.000
  PB211B                     0.00       0.00       0.00       0.00       0.00       0.00       0.00        0.00     0.00   0.000
  PB211C                     0.00       0.00       0.00       0.00       0.00       0.00       0.00        0.00     0.00   0.000
  PB212A                     0.00       0.00       0.00       0.00       0.00       0.00       0.00        0.00     0.00   0.000
  PB212B                     0.00       0.00       0.00       0.00       0.00       0.00       0.00        0.00     0.00   0.000
  PB212C                     0.00       0.00       0.00       0.00       0.00       0.00       0.00        0.00     0.00   0.000
  PB213A                     0.00       0.00       0.00       0.00       0.00       0.00       0.00        0.00     0.00   0.000
  PB213B                     0.00       0.00       0.00       0.00       0.00       0.00       0.00        0.00     0.00   0.000
  PB214                      0.00       0.00       0.00       0.00       0.00       0.00       0.00        0.00     0.00   0.000
  PB215A                     0.00       0.00       0.00       0.00       0.00       0.00       0.00        0.00     0.00   0.000
  PB215B                     0.00       0.00       0.00       0.00       0.00       0.00       0.00        0.00     0.00   0.000
  PB216A                     0.00       0.00       0.00       0.00       0.00       0.00       0.00        0.00     0.00   0.000
  PB216B                     0.00       0.00       0.00       0.00       0.00       0.00       0.00        0.00     0.00   0.000
  PB217A                     0.00       0.00       0.00       0.00       0.00       0.00       0.00        0.00     0.00   0.000
  PB217B                     0.00       0.00       0.00       0.00       0.00       0.00       0.00        0.00     0.00   0.000
  PB217C                     0.00       0.00       0.00       0.00       0.00       0.00       0.00        0.00     0.00   0.000
  PB218                      0.00       0.00       0.00       0.00       0.00       0.00       0.00        0.00     0.00   0.000
  PB219                      0.00       0.00       0.00       0.00       0.00       0.00       0.00        0.00     0.00   0.000
  PB220                      0.00       0.00       0.00       0.00       0.00       0.00       0.00        0.00     0.00   0.000
  PB221                      0.00       0.00       0.00       0.00       0.00       0.00       0.00        0.00     0.00   0.000
  PB222                      0.00       0.00       0.00       0.00       0.00       0.00       0.00        0.00     0.00   0.000
  PB223                      0.00       0.00       0.00       0.00       0.00       0.00       0.00        0.00     0.00   0.000
  PB224                      0.00       0.00       0.00       0.00       0.00       0.00       0.00        0.00     0.00   0.000
  PB225                      0.00       0.00       0.00       0.00       0.00       0.00       0.00        0.00     0.00   0.000
  PB226                      0.00       0.00       0.00       0.00       0.00       0.00       0.00        0.00     0.00   0.000
  PB227                      0.00       0.00       0.00       0.00       0.00       0.00       0.00        0.00     0.00   0.000
  PB228                      0.00       0.00       0.00       0.00       0.00       0.00       0.00        0.00     0.00   0.000
  PB229                      0.00       0.00       0.00       0.00       0.00       0.00       0.00        0.00     0.00   0.000
  PB230A                     0.00       0.00       0.00       0.00       0.00       0.00       0.00        0.00     0.00   0.000
  PB230B                     0.00       0.00       0.00       0.00       0.00       0.00       0.00        0.00     0.00   0.000
  PB231                      0.00       0.00       0.00       0.00       0.00       0.00       0.00        0.00     0.00   0.000
  PB232A                     0.00       0.00       0.00       0.00       0.00       0.00       0.00        0.00     0.00   0.000
  PB232B                     0.00       0.00       0.00       0.00       0.00       0.00       0.00        0.00     0.00   0.000
  PB233                      0.00       0.00       0.00       0.00       0.00       0.00       0.00        0.00     0.00   0.000
  PB234                      0.00       0.00       0.00       0.00       0.00       0.00       0.00        0.00     0.00   0.000
  PB235                      0.00       0.00       0.00       0.00       0.00       0.00       0.00        0.00     0.00   0.000
  PB236                      0.00       0.00       0.00       0.00       0.00       0.00       0.00        0.00     0.00   0.000
  PB237                      0.00       0.00       0.00       0.00       0.00       0.00       0.00        0.00     0.00   0.000
  PB238                      0.00       0.00       0.00       0.00       0.00       0.00       0.00        0.00     0.00   0.000
  PB239                      0.00       0.00       0.00       0.00       0.00       0.00       0.00        0.00     0.00   0.000
  PB240                      0.00       0.00       0.00       0.00       0.00       0.00       0.00        0.00     0.00   0.000
  PB241                      0.00       0.00       0.00       0.00       0.00       0.00       0.00        0.00     0.00   0.000
  PB242                      0.00       0.00       0.00       0.00       0.00       0.00       0.00        0.00     0.00   0.000
  PB243                      0.00       0.00       0.00       0.00       0.00       0.00       0.00        0.00     0.00   0.000
  PB244                      0.00       0.00       0.00       0.00       0.00       0.00       0.00        0.00     0.00   0.000
  PB245                      0.00       0.00       0.00       0.00       0.00       0.00       0.00        0.00     0.00   0.000
  PB246                      0.00       0.00       0.00       0.00       0.00       0.00       0.00        0.00     0.00   0.000
  PB247                      0.00       0.00       0.00       0.00       0.00       0.00       0.00        0.00     0.00   0.000
  PB248                      0.00       0.00       0.00       0.00       0.00       0.00       0.00        0.00     0.00   0.000
  PB249                      0.00       0.00       0.00       0.00       0.00       0.00       0.00        0.00     0.00   0.000
  PB250                      0.00       0.00       0.00       0.00       0.00       0.00       0.00        0.00     0.00   0.000
  PB251                      0.00       0.00       0.00       0.00       0.00       0.00       0.00        0.00     0.00   0.000
  PB252                      0.00       0.00       0.00       0.00       0.00       0.00       0.00        0.00     0.00   0.000
  PB253                      0.00       0.00       0.00       0.00       0.00       0.00       0.00        0.00     0.00   0.000
  PB254                      0.00       0.00       0.00       0.00       0.00       0.00       0.00        0.00     0.00   0.000
  PB255                      0.00       0.00       0.00       0.00       0.00       0.00       0.00        0.00     0.00   0.000
  PB256                      0.00       0.00       0.00       0.00       0.00       0.00       0.00        0.00     0.00   0.000
  PB257                      0.00       0.00       0.00       0.00       0.00       0.00       0.00        0.00     0.00   0.000
  PB258                      0.00       0.00       0.00       0.00       0.00       0.00       0.00        0.00     0.00   0.000
  VV1                        0.00       0.00       0.00       0.00       0.00       0.00       0.00        0.00     0.00   0.000
  VV2                        0.00       0.00       0.00       0.00       0.00       0.00       0.00        0.00     0.00   0.000
  VV3                        0.00       0.00       0.00       0.00       0.00       0.00       0.00        0.00     0.00   0.000
  VV4                        0.00       0.00       0.00       0.00       0.00       0.00       0.00        0.00     0.00   0.000
  VV5                        0.00       0.00       0.00       0.00       0.00       0.00       0.00        0.00     0.00   0.000
  VV6                        0.00       0.00       0.00       0.00       0.00       0.00       0.00        0.00     0.00   0.000
  VV7                        0.00       0.00       0.00       0.00       0.00       0.00       0.00        0.00     0.00   0.000
  VV8                        0.00       0.00       0.00       0.00       0.00       0.00       0.00        0.00     0.00   0.000
  VV9                        0.00       0.00       0.00       0.00       0.00       0.00       0.00        0.00     0.00   0.000
  VV10                       0.00       0.00       0.00       0.00       0.00       0.00       0.00        0.00     0.00   0.000
  VV11                       0.00       0.00       0.00       0.00       0.00       0.00       0.00        0.00     0.00   0.000
  VV12                       0.00       0.00       0.00       0.00       0.00       0.00       0.00        0.00     0.00   0.000
  VV13                       0.00       0.00       0.00       0.00       0.00       0.00       0.00        0.00     0.00   0.000
  VV14                       0.00       0.00       0.00       0.00       0.00       0.00       0.00        0.00     0.00   0.000
  VV15                       0.00       0.00       0.00       0.00       0.00       0.00       0.00        0.00     0.00   0.000
  VV16                       0.00       0.00       0.00       0.00       0.00       0.00       0.00        0.00     0.00   0.000
  VV17                       0.00       0.00       0.00       0.00       0.00       0.00       0.00        0.00     0.00   0.000
  VV18                       0.00       0.00       0.00       0.00       0.00       0.00       0.00        0.00     0.00   0.000
  VV19                       0.00       0.00       0.00       0.00       0.00       0.00       0.00        0.00     0.00   0.000
  VV20                       0.00       0.00       0.00       0.00       0.00       0.00       0.00        0.00     0.00   0.000
  VV21                       0.00       0.00       0.00       0.00       0.00       0.00       0.00        0.00     0.00   0.000
  VV22                       0.00       0.00       0.00       0.00       0.00       0.00       0.00        0.00     0.00   0.000
  VV23                       0.00       0.00       0.00       0.00       0.00       0.00       0.00        0.00     0.00   0.000
  VV24                       0.00       0.00       0.00       0.00       0.00       0.00       0.00        0.00     0.00   0.000
  VV25                       0.00       0.00       0.00       0.00       0.00       0.00       0.00        0.00     0.00   0.000
  VV26                       0.00       0.00       0.00       0.00       0.00       0.00       0.00        0.00     0.00   0.000
  VV27                       0.00       0.00       0.00       0.00       0.00       0.00       0.00        0.00     0.00   0.000
  VV28                       0.00       0.00       0.00       0.00       0.00       0.00       0.00        0.00     0.00   0.000
  VV29                       0.00       0.00       0.00       0.00       0.00       0.00       0.00        0.00     0.00   0.000
  VV30                       0.00       0.00       0.00       0.00       0.00       0.00       0.00        0.00     0.00   0.000
  VV31                       0.00       0.00       0.00       0.00       0.00       0.00       0.00        0.00     0.00   0.000
  VV32                       0.00       0.00       0.00       0.00       0.00       0.00       0.00        0.00     0.00   0.000
  VV33                       0.00       0.00       0.00       0.00       0.00       0.00       0.00        0.00     0.00   0.000
  VV34                       0.00       0.00       0.00       0.00       0.00       0.00       0.00        0.00     0.00   0.000
  VV35                       0.00       0.00       0.00       0.00       0.00       0.00       0.00        0.00     0.00   0.000
  VV36                       0.00       0.00       0.00       0.00       0.00       0.00       0.00        0.00     0.00   0.000
  VV37                       0.00       0.00       0.00       0.00       0.00       0.00       0.00        0.00     0.00   0.000
  VV38                       0.00       0.00       0.00       0.00       0.00       0.00       0.00        0.00     0.00   0.000
  VV39                       0.00       0.00       0.00       0.00       0.00       0.00       0.00        0.00     0.00   0.000
  VV40                       0.00       0.00       0.00       0.00       0.00       0.00       0.00        0.00     0.00   0.000
  VV41                       0.00       0.00       0.00       0.00       0.00       0.00       0.00        0.00     0.00   0.000
  VV42                       0.00       0.00       0.00       0.00       0.00       0.00       0.00        0.00     0.00   0.000
  VV43                       0.00       0.00       0.00       0.00       0.00       0.00       0.00        0.00     0.00   0.000
  VV44                       0.00       0.00       0.00       0.00       0.00       0.00       0.00        0.00     0.00   0.000
  VV45                       0.00       0.00       0.00       0.00       0.00       0.00       0.00        0.00     0.00   0.000
  VV46                       0.00       0.00       0.00       0.00       0.00       0.00       0.00        0.00     0.00   0.000
  VV47                       0.00       0.00       0.00       0.00       0.00       0.00       0.00        0.00     0.00   0.000
  VV48                       0.00       0.00       0.00       0.00       0.00       0.00       0.00        0.00     0.00   0.000
  VV49                       0.00       0.00       0.00       0.00       0.00       0.00       0.00        0.00     0.00   0.000
  VV50                       0.00       0.00       0.00       0.00       0.00       0.00       0.00        0.00     0.00   0.000
  VV51                       0.00       0.00       0.00       0.00       0.00       0.00       0.00        0.00     0.00   0.000
  VV52                       0.00       0.00       0.00       0.00       0.00       0.00       0.00        0.00     0.00   0.000
  VV53                       0.00       0.00       0.00       0.00       0.00       0.00       0.00        0.00     0.00   0.000
  VB1                        0.00       0.00       0.00       0.00       0.00       0.00       0.00        0.00     0.00   0.000
  VB2                        0.00       0.00       0.00       0.00       0.00       0.00       0.00        0.00     0.00   0.000
  VB3                        0.00       0.00       0.00       0.00       0.00       0.00       0.00        0.00     0.00   0.000
  VB4                        0.00       0.00       0.00       0.00       0.00       0.00       0.00        0.00     0.00   0.000
  VB5                        0.00       0.00       0.00       0.00       0.00       0.00       0.00        0.00     0.00   0.000
  VB6                        0.00       0.00       0.00       0.00       0.00       0.00       0.00        0.00     0.00   0.000
  VB7                        0.00       0.00       0.00       0.00       0.00       0.00       0.00        0.00     0.00   0.000
  VB8                        0.00       0.00       0.00       0.00       0.00       0.00       0.00        0.00     0.00   0.000
  VB9                        0.00       0.00       0.00       0.00       0.00       0.00       0.00        0.00     0.00   0.000
  VB10                       0.00       0.00       0.00       0.00       0.00       0.00       0.00        0.00     0.00   0.000
  VB11                       0.00       0.00       0.00       0.00       0.00       0.00       0.00        0.00     0.00   0.000
  VB12                       0.00       0.00       0.00       0.00       0.00       0.00       0.00        0.00     0.00   0.000
  VB13                       0.00       0.00       0.00       0.00       0.00       0.00       0.00        0.00     0.00   0.000
  VB14                       0.00       0.00       0.00       0.00       0.00       0.00       0.00        0.00     0.00   0.000
  VB15                       0.00       0.00       0.00       0.00       0.00       0.00       0.00        0.00     0.00   0.000
  VB16                       0.00       0.00       0.00       0.00       0.00       0.00       0.00        0.00     0.00   0.000
  VB17                       0.00       0.00       0.00       0.00       0.00       0.00       0.00        0.00     0.00   0.000
  VB18                       0.00       0.00       0.00       0.00       0.00       0.00       0.00        0.00     0.00   0.000
  VB19                       0.00       0.00       0.00       0.00       0.00       0.00       0.00        0.00     0.00   0.000
  VB20                       0.00       0.00       0.00       0.00       0.00       0.00       0.00        0.00     0.00   0.000
  VB21                       0.00       0.00       0.00       0.00       0.00       0.00       0.00        0.00     0.00   0.000
  VB22                       0.00       0.00       0.00       0.00       0.00       0.00       0.00        0.00     0.00   0.000
  VB23                       0.00       0.00       0.00       0.00       0.00       0.00       0.00        0.00     0.00   0.000
  VB24                       0.00       0.00       0.00       0.00       0.00       0.00       0.00        0.00     0.00   0.000
  VB25                       0.00       0.00       0.00       0.00       0.00       0.00       0.00        0.00     0.00   0.000
  VB26                       0.00       0.00       0.00       0.00       0.00       0.00       0.00        0.00     0.00   0.000
  VB27                       0.00       0.00       0.00       0.00       0.00       0.00       0.00        0.00     0.00   0.000
  VB28                       0.00       0.00       0.00       0.00       0.00       0.00       0.00        0.00     0.00   0.000
  VB29                       0.00       0.00       0.00       0.00       0.00       0.00       0.00        0.00     0.00   0.000
  VB30                       0.00       0.00       0.00       0.00       0.00       0.00       0.00        0.00     0.00   0.000
  VB31                       0.00       0.00       0.00       0.00       0.00       0.00       0.00        0.00     0.00   0.000
  VB32                       0.00       0.00       0.00       0.00       0.00       0.00       0.00        0.00     0.00   0.000
  VB33                       0.00       0.00       0.00       0.00       0.00       0.00       0.00        0.00     0.00   0.000
  VB34                       0.00       0.00       0.00       0.00       0.00       0.00       0.00        0.00     0.00   0.000
  VB35                       0.00       0.00       0.00       0.00       0.00       0.00       0.00        0.00     0.00   0.000
  VB36                       0.00       0.00       0.00       0.00       0.00       0.00       0.00        0.00     0.00   0.000
  VB37                       0.00       0.00       0.00       0.00       0.00       0.00       0.00        0.00     0.00   0.000
  VB38                       0.00       0.00       0.00       0.00       0.00       0.00       0.00        0.00     0.00   0.000
  VB39                       0.00       0.00       0.00       0.00       0.00       0.00       0.00        0.00     0.00   0.000
  VB40                       0.00       0.00       0.00       0.00       0.00       0.00       0.00        0.00     0.00   0.000
  VB41                       0.00       0.00       0.00       0.00       0.00       0.00       0.00        0.00     0.00   0.000
  VB42                       0.00       0.00       0.00       0.00       0.00       0.00       0.00        0.00     0.00   0.000
  VB43                       0.00       0.00       0.00       0.00       0.00       0.00       0.00        0.00     0.00   0.000
  VB44                       0.00       0.00       0.00       0.00       0.00       0.00       0.00        0.00     0.00   0.000
  VB45                       0.00       0.00       0.00       0.00       0.00       0.00       0.00        0.00     0.00   0.000
  VB46                       0.00       0.00       0.00       0.00       0.00       0.00       0.00        0.00     0.00   0.000
  VB47                       0.00       0.00       0.00       0.00       0.00       0.00       0.00        0.00     0.00   0.000
  VB48                       0.00       0.00       0.00       0.00       0.00       0.00       0.00        0.00     0.00   0.000
  VB49                       0.00       0.00       0.00       0.00       0.00       0.00       0.00        0.00     0.00   0.000
  VB50                       0.00       0.00       0.00       0.00       0.00       0.00       0.00        0.00     0.00   0.000
  VB51                       0.00       0.00       0.00       0.00       0.00       0.00       0.00        0.00     0.00   0.000
  VB52                       0.00       0.00       0.00       0.00       0.00       0.00       0.00        0.00     0.00   0.000
  VB53                       0.00       0.00       0.00       0.00       0.00       0.00       0.00        0.00     0.00   0.000
  VB54                       0.00       0.00       0.00       0.00       0.00       0.00       0.00        0.00     0.00   0.000
  VB55                       0.00       0.00       0.00       0.00       0.00       0.00       0.00        0.00     0.00   0.000
  VB56                       0.00       0.00       0.00       0.00       0.00       0.00       0.00        0.00     0.00   0.000
  VB57                       0.00       0.00       0.00       0.00       0.00       0.00       0.00        0.00     0.00   0.000
  VB58                       0.00       0.00       0.00       0.00       0.00       0.00       0.00        0.00     0.00   0.000
  VB59                       0.00       0.00       0.00       0.00       0.00       0.00       0.00        0.00     0.00   0.000
  VB60                       0.00       0.00       0.00       0.00       0.00       0.00       0.00        0.00     0.00   0.000
  VB61                       0.00       0.00       0.00       0.00       0.00       0.00       0.00        0.00     0.00   0.000
  VB62                       0.00       0.00       0.00       0.00       0.00       0.00       0.00        0.00     0.00   0.000
  VB63                       0.00       0.00       0.00       0.00       0.00       0.00       0.00        0.00     0.00   0.000
  VB64                       0.00       0.00       0.00       0.00       0.00       0.00       0.00        0.00     0.00   0.000
  VB65                       0.00       0.00       0.00       0.00       0.00       0.00       0.00        0.00     0.00   0.000
  VB66                       0.00       0.00       0.00       0.00       0.00       0.00       0.00        0.00     0.00   0.000
  VB67                       0.00       0.00       0.00       0.00       0.00       0.00       0.00        0.00     0.00   0.000
  VB68                       0.00       0.00       0.00       0.00       0.00       0.00       0.00        0.00     0.00   0.000
  VB69                       0.00       0.00       0.00       0.00       0.00       0.00       0.00        0.00     0.00   0.000
  VB70                       0.00       0.00       0.00       0.00       0.00       0.00       0.00        0.00     0.00   0.000
  VB71                       0.00       0.00       0.00       0.00       0.00       0.00       0.00        0.00     0.00   0.000
  VB72                       0.00       0.00       0.00       0.00       0.00       0.00       0.00        0.00     0.00   0.000
  VB73                       0.00       0.00       0.00       0.00       0.00       0.00       0.00        0.00     0.00   0.000
  VB74                       0.00       0.00       0.00       0.00       0.00       0.00       0.00        0.00     0.00   0.000
  VB75                       0.00       0.00       0.00       0.00       0.00       0.00       0.00        0.00     0.00   0.000
  VB76                       0.00       0.00       0.00       0.00       0.00       0.00       0.00        0.00     0.00   0.000
  VB77                       0.00       0.00       0.00       0.00       0.00       0.00       0.00        0.00     0.00   0.000
  VB78                       0.00       0.00       0.00       0.00       0.00       0.00       0.00        0.00     0.00   0.000
  VB79                       0.00       0.00       0.00       0.00       0.00       0.00       0.00        0.00     0.00   0.000
  VB80                       0.00       0.00       0.00       0.00       0.00       0.00       0.00        0.00     0.00   0.000
  VB81                       0.00       0.00       0.00       0.00       0.00       0.00       0.00        0.00     0.00   0.000
  VB82                       0.00       0.00       0.00       0.00       0.00       0.00       0.00        0.00     0.00   0.000
  VB83                       0.00       0.00       0.00       0.00       0.00       0.00       0.00        0.00     0.00   0.000
  VB84                       0.00       0.00       0.00       0.00       0.00       0.00       0.00        0.00     0.00   0.000
  VB85                       0.00       0.00       0.00       0.00       0.00       0.00       0.00        0.00     0.00   0.000
  VB86                       0.00       0.00       0.00       0.00       0.00       0.00       0.00        0.00     0.00   0.000
  VB87                       0.00       0.00       0.00       0.00       0.00       0.00       0.00        0.00     0.00   0.000
  VB88                       0.00       0.00       0.00       0.00       0.00       0.00       0.00        0.00     0.00   0.000
  VB89                       0.00       0.00       0.00       0.00       0.00       0.00       0.00        0.00     0.00   0.000
  VB90                       0.00       0.00       0.00       0.00       0.00       0.00       0.00        0.00     0.00   0.000
  VB91                       0.00       0.00       0.00       0.00       0.00       0.00       0.00        0.00     0.00   0.000
  VB92                       0.00       0.00       0.00       0.00       0.00       0.00       0.00        0.00     0.00   0.000
  VB93                       0.00       0.00       0.00       0.00       0.00       0.00       0.00        0.00     0.00   0.000
  VB94                       0.00       0.00       0.00       0.00       0.00       0.00       0.00        0.00     0.00   0.000
  VB95                       0.00       0.00       0.00       0.00       0.00       0.00       0.00        0.00     0.00   0.000
  VB96                       0.00       0.00       0.00       0.00       0.00       0.00       0.00        0.00     0.00   0.000
  VB97                       0.00       0.00       0.00       0.00       0.00       0.00       0.00        0.00     0.00   0.000
  VB98                       0.00       0.00       0.00       0.00       0.00       0.00       0.00        0.00     0.00   0.000
  VB99                       0.00       0.00       0.00       0.00       0.00       0.00       0.00        0.00     0.00   0.000
  VB100                      0.00       0.00       0.00       0.00       0.00       0.00       0.00        0.00     0.00   0.000
  VB101                      0.00       0.00       0.00       0.00       0.00       0.00       0.00        0.00     0.00   0.000
  VB102                      0.00       0.00       0.00       0.00       0.00       0.00       0.00        0.00     0.00   0.000
  VB103                      0.00       0.00       0.00       0.00       0.00       0.00       0.00        0.00     0.00   0.000
  VB104                      0.00       0.00       0.00       0.00       0.00       0.00       0.00        0.00     0.00   0.000
  VB105                      0.00       0.00       0.00       0.00       0.00       0.00       0.00        0.00     0.00   0.000
  VB106                      0.00       0.00       0.00       0.00       0.00       0.00       0.00        0.00     0.00   0.000
  VB107                      0.00       0.00       0.00       0.00       0.00       0.00       0.00        0.00     0.00   0.000
  VB108                      0.00       0.00       0.00       0.00       0.00       0.00       0.00        0.00     0.00   0.000
  VB109                      0.00       0.00       0.00       0.00       0.00       0.00       0.00        0.00     0.00   0.000
  VB110                      0.00       0.00       0.00       0.00       0.00       0.00       0.00        0.00     0.00   0.000
  VB111                      0.00       0.00       0.00       0.00       0.00       0.00       0.00        0.00     0.00   0.000
  VB112                      0.00       0.00       0.00       0.00       0.00       0.00       0.00        0.00     0.00   0.000
  VB113                      0.00       0.00       0.00       0.00       0.00       0.00       0.00        0.00     0.00   0.000
  VB114                      0.00       0.00       0.00       0.00       0.00       0.00       0.00        0.00     0.00   0.000
  VB115                      0.00       0.00       0.00       0.00       0.00       0.00       0.00        0.00     0.00   0.000
  VB116                      0.00       0.00       0.00       0.00       0.00       0.00       0.00        0.00     0.00   0.000
  VB117                      0.00       0.00       0.00       0.00       0.00       0.00       0.00        0.00     0.00   0.000
  VB118                      0.00       0.00       0.00       0.00       0.00       0.00       0.00        0.00     0.00   0.000
  VB119                      0.00       0.00       0.00       0.00       0.00       0.00       0.00        0.00     0.00   0.000
  VB120                      0.00       0.00       0.00       0.00       0.00       0.00       0.00        0.00     0.00   0.000
  VB121                      0.00       0.00       0.00       0.00       0.00       0.00       0.00        0.00     0.00   0.000
  VB122                      0.00       0.00       0.00       0.00       0.00       0.00       0.00        0.00     0.00   0.000
  VB123                      0.00       0.00       0.00       0.00       0.00       0.00       0.00        0.00     0.00   0.000
  VB124                      0.00       0.00       0.00       0.00       0.00       0.00       0.00        0.00     0.00   0.000
  VB125                      0.00       0.00       0.00       0.00       0.00       0.00       0.00        0.00     0.00   0.000
  VB126                      0.00       0.00       0.00       0.00       0.00       0.00       0.00        0.00     0.00   0.000
  VB127                      0.00       0.00       0.00       0.00       0.00       0.00       0.00        0.00     0.00   0.000
  VB128                      0.00       0.00       0.00       0.00       0.00       0.00       0.00        0.00     0.00   0.000
  VB129                      0.00       0.00       0.00       0.00       0.00       0.00       0.00        0.00     0.00   0.000
  VB130                      0.00       0.00       0.00       0.00       0.00       0.00       0.00        0.00     0.00   0.000
  VB131                      0.00       0.00       0.00       0.00       0.00       0.00       0.00        0.00     0.00   0.000
  VB132                      0.00       0.00       0.00       0.00       0.00       0.00       0.00        0.00     0.00   0.000
  VB133                      0.00       0.00       0.00       0.00       0.00       0.00       0.00        0.00     0.00   0.000
  VB134                      0.00       0.00       0.00       0.00       0.00       0.00       0.00        0.00     0.00   0.000
  VB135                      0.00       0.00       0.00       0.00       0.00       0.00       0.00        0.00     0.00   0.000
  VB136                      0.00       0.00       0.00       0.00       0.00       0.00       0.00        0.00     0.00   0.000
  VB137                      0.00       0.00       0.00       0.00       0.00       0.00       0.00        0.00     0.00   0.000
  VB138                      0.00       0.00       0.00       0.00       0.00       0.00       0.00        0.00     0.00   0.000
  VB139                      0.00       0.00       0.00       0.00       0.00       0.00       0.00        0.00     0.00   0.000
  VB140                      0.00       0.00       0.00       0.00       0.00       0.00       0.00        0.00     0.00   0.000
  VB141                      0.00       0.00       0.00       0.00       0.00       0.00       0.00        0.00     0.00   0.000
  VB142                      0.00       0.00       0.00       0.00       0.00       0.00       0.00        0.00     0.00   0.000
  VB143                      0.00       0.00       0.00       0.00       0.00       0.00       0.00        0.00     0.00   0.000
  VB144                      0.00       0.00       0.00       0.00       0.00       0.00       0.00        0.00     0.00   0.000
  VB145                      0.00       0.00       0.00       0.00       0.00       0.00       0.00        0.00     0.00   0.000
  VB146                      0.00       0.00       0.00       0.00       0.00       0.00       0.00        0.00     0.00   0.000
  VB147                      0.00       0.00       0.00       0.00       0.00       0.00       0.00        0.00     0.00   0.000
  VB148                      0.00       0.00       0.00       0.00       0.00       0.00       0.00        0.00     0.00   0.000
  VB149                      0.00       0.00       0.00       0.00       0.00       0.00       0.00        0.00     0.00   0.000
  VB150                      0.00       0.00       0.00       0.00       0.00       0.00       0.00        0.00     0.00   0.000
  VB151                      0.00       0.00       0.00       0.00       0.00       0.00       0.00        0.00     0.00   0.000
[...]
  129                     1.37   -nan(ind)  -nan(ind)  -nan(ind)  -nan(ind)  -nan(ind)  -nan(ind)  -nan(ind)  -nan(ind)  -nan(ind)
  130                     1.36   -nan(ind)  -nan(ind)  -nan(ind)  -nan(ind)  -nan(ind)  -nan(ind)  -nan(ind)  -nan(ind)  -nan(ind)
  131                     2.78   -nan(ind)  -nan(ind)  -nan(ind)  -nan(ind)  -nan(ind)  -nan(ind)  -nan(ind)  -nan(ind)  -nan(ind)
  132                     1.45   -nan(ind)  -nan(ind)  -nan(ind)  -nan(ind)  -nan(ind)  -nan(ind)  -nan(ind)  -nan(ind)  -nan(ind)
  133                     1.11   -nan(ind)  -nan(ind)  -nan(ind)  -nan(ind)  -nan(ind)  -nan(ind)  -nan(ind)  -nan(ind)  -nan(ind)
  134                     2.72   -nan(ind)  -nan(ind)  -nan(ind)  -nan(ind)  -nan(ind)  -nan(ind)  -nan(ind)  -nan(ind)  -nan(ind)
  135                     1.00   -nan(ind)  -nan(ind)  -nan(ind)  -nan(ind)  -nan(ind)  -nan(ind)  -nan(ind)  -nan(ind)  -nan(ind)
  136                     1.16   -nan(ind)  -nan(ind)  -nan(ind)  -nan(ind)  -nan(ind)  -nan(ind)  -nan(ind)  -nan(ind)  -nan(ind)
  137                     1.00   -nan(ind)  -nan(ind)  -nan(ind)  -nan(ind)  -nan(ind)  -nan(ind)  -nan(ind)  -nan(ind)  -nan(ind)
  138                     1.42   -nan(ind)  -nan(ind)  -nan(ind)  -nan(ind)  -nan(ind)  -nan(ind)  -nan(ind)  -nan(ind)  -nan(ind)
  139                     1.00   -nan(ind)  -nan(ind)  -nan(ind)  -nan(ind)  -nan(ind)  -nan(ind)  -nan(ind)  -nan(ind)  -nan(ind)
  140                     1.44   -nan(ind)  -nan(ind)  -nan(ind)  -nan(ind)  -nan(ind)  -nan(ind)  -nan(ind)  -nan(ind)  -nan(ind)
  141                     2.78   -nan(ind)  -nan(ind)  -nan(ind)  -nan(ind)  -nan(ind)  -nan(ind)  -nan(ind)  -nan(ind)  -nan(ind)
  142                     1.00   -nan(ind)  -nan(ind)  -nan(ind)  -nan(ind)  -nan(ind)  -nan(ind)  -nan(ind)  -nan(ind)  -nan(ind)
  143                     2.01   -nan(ind)  -nan(ind)  -nan(ind)  -nan(ind)  -nan(ind)  -nan(ind)  -nan(ind)  -nan(ind)  -nan(ind)
  144                     1.93   -nan(ind)  -nan(ind)  -nan(ind)  -nan(ind)  -nan(ind)  -nan(ind)  -nan(ind)  -nan(ind)  -nan(ind)
  145                     1.55   -nan(ind)  -nan(ind)  -nan(ind)  -nan(ind)  -nan(ind)  -nan(ind)  -nan(ind)  -nan(ind)  -nan(ind)
  146                     2.29   -nan(ind)  -nan(ind)  -nan(ind)  -nan(ind)  -nan(ind)  -nan(ind)  -nan(ind)  -nan(ind)  -nan(ind)
  147                     1.88   -nan(ind)  -nan(ind)  -nan(ind)  -nan(ind)  -nan(ind)  -nan(ind)  -nan(ind)  -nan(ind)  -nan(ind)
  148                     1.62   -nan(ind)  -nan(ind)  -nan(ind)  -nan(ind)  -nan(ind)  -nan(ind)  -nan(ind)  -nan(ind)  -nan(ind)
  149                     2.23   -nan(ind)  -nan(ind)  -nan(ind)  -nan(ind)  -nan(ind)  -nan(ind)  -nan(ind)  -nan(ind)  -nan(ind)
  150                     1.13   -nan(ind)  -nan(ind)  -nan(ind)  -nan(ind)  -nan(ind)  -nan(ind)  -nan(ind)  -nan(ind)  -nan(ind)
  151                     1.00   -nan(ind)  -nan(ind)  -nan(ind)  -nan(ind)  -nan(ind)  -nan(ind)  -nan(ind)  -nan(ind)  -nan(ind)
  152                     1.00   -nan(ind)  -nan(ind)  -nan(ind)  -nan(ind)  -nan(ind)  -nan(ind)  -nan(ind)  -nan(ind)  -nan(ind)
  153                     1.00   -nan(ind)  -nan(ind)  -nan(ind)  -nan(ind)  -nan(ind)  -nan(ind)  -nan(ind)  -nan(ind)  -nan(ind)
  154                     1.00   -nan(ind)  -nan(ind)  -nan(ind)  -nan(ind)  -nan(ind)  -nan(ind)  -nan(ind)  -nan(ind)  -nan(ind)
  155                     1.00   -nan(ind)  -nan(ind)  -nan(ind)  -nan(ind)  -nan(ind)  -nan(ind)  -nan(ind)  -nan(ind)  -nan(ind)
  156                     1.63   -nan(ind)  -nan(ind)  -nan(ind)  -nan(ind)  -nan(ind)  -nan(ind)  -nan(ind)  -nan(ind)  -nan(ind)
  157                     1.48   -nan(ind)  -nan(ind)  -nan(ind)  -nan(ind)  -nan(ind)  -nan(ind)  -nan(ind)  -nan(ind)  -nan(ind)
  158                     1.06   -nan(ind)  -nan(ind)  -nan(ind)  -nan(ind)  -nan(ind)  -nan(ind)  -nan(ind)  -nan(ind)  -nan(ind)
  159                     1.11   -nan(ind)  -nan(ind)  -nan(ind)  -nan(ind)  -nan(ind)  -nan(ind)  -nan(ind)  -nan(ind)  -nan(ind)
  160                     1.00   -nan(ind)  -nan(ind)  -nan(ind)  -nan(ind)  -nan(ind)  -nan(ind)  -nan(ind)  -nan(ind)  -nan(ind)
  161                     1.02   -nan(ind)  -nan(ind)  -nan(ind)  -nan(ind)  -nan(ind)  -nan(ind)  -nan(ind)  -nan(ind)  -nan(ind)
  162                     1.00   -nan(ind)  -nan(ind)  -nan(ind)  -nan(ind)  -nan(ind)  -nan(ind)  -nan(ind)  -nan(ind)  -nan(ind)
  163                     1.00   -nan(ind)  -nan(ind)  -nan(ind)  -nan(ind)  -nan(ind)  -nan(ind)  -nan(ind)  -nan(ind)  -nan(ind)
  164                     1.61   -nan(ind)  -nan(ind)  -nan(ind)  -nan(ind)  -nan(ind)  -nan(ind)  -nan(ind)  -nan(ind)  -nan(ind)
  165                     1.00   -nan(ind)  -nan(ind)  -nan(ind)  -nan(ind)  -nan(ind)  -nan(ind)  -nan(ind)  -nan(ind)  -nan(ind)
  166                     1.74   -nan(ind)  -nan(ind)  -nan(ind)  -nan(ind)  -nan(ind)  -nan(ind)  -nan(ind)  -nan(ind)  -nan(ind)
  167                     1.00   -nan(ind)  -nan(ind)  -nan(ind)  -nan(ind)  -nan(ind)  -nan(ind)  -nan(ind)  -nan(ind)  -nan(ind)
  168                     1.29   -nan(ind)  -nan(ind)  -nan(ind)  -nan(ind)  -nan(ind)  -nan(ind)  -nan(ind)  -nan(ind)  -nan(ind)
  169                     1.79   -nan(ind)  -nan(ind)  -nan(ind)  -nan(ind)  -nan(ind)  -nan(ind)  -nan(ind)  -nan(ind)  -nan(ind)
  170                     1.14   -nan(ind)  -nan(ind)  -nan(ind)  -nan(ind)  -nan(ind)  -nan(ind)  -nan(ind)  -nan(ind)  -nan(ind)
  171                     2.14   -nan(ind)  -nan(ind)  -nan(ind)  -nan(ind)  -nan(ind)  -nan(ind)  -nan(ind)  -nan(ind)  -nan(ind)
  172                     2.68   -nan(ind)  -nan(ind)  -nan(ind)  -nan(ind)  -nan(ind)  -nan(ind)  -nan(ind)  -nan(ind)  -nan(ind)
  173                     2.66   -nan(ind)  -nan(ind)  -nan(ind)  -nan(ind)  -nan(ind)  -nan(ind)  -nan(ind)  -nan(ind)  -nan(ind)
  174                     2.18   -nan(ind)  -nan(ind)  -nan(ind)  -nan(ind)  -nan(ind)  -nan(ind)  -nan(ind)  -nan(ind)  -nan(ind)
  175                     1.59   -nan(ind)  -nan(ind)  -nan(ind)  -nan(ind)  -nan(ind)  -nan(ind)  -nan(ind)  -nan(ind)  -nan(ind)
  176                     1.75   -nan(ind)  -nan(ind)  -nan(ind)  -nan(ind)  -nan(ind)  -nan(ind)  -nan(ind)  -nan(ind)  -nan(ind)
  177                     1.58   -nan(ind)  -nan(ind)  -nan(ind)  -nan(ind)  -nan(ind)  -nan(ind)  -nan(ind)  -nan(ind)  -nan(ind)
  178                     1.56   -nan(ind)  -nan(ind)  -nan(ind)  -nan(ind)  -nan(ind)  -nan(ind)  -nan(ind)  -nan(ind)  -nan(ind)
  179                     1.81   -nan(ind)  -nan(ind)  -nan(ind)  -nan(ind)  -nan(ind)  -nan(ind)  -nan(ind)  -nan(ind)  -nan(ind)
  180                     1.61   -nan(ind)  -nan(ind)  -nan(ind)  -nan(ind)  -nan(ind)  -nan(ind)  -nan(ind)  -nan(ind)  -nan(ind)
  181                     1.67   -nan(ind)  -nan(ind)  -nan(ind)  -nan(ind)  -nan(ind)  -nan(ind)  -nan(ind)  -nan(ind)  -nan(ind)
  182                     1.33   -nan(ind)  -nan(ind)  -nan(ind)  -nan(ind)  -nan(ind)  -nan(ind)  -nan(ind)  -nan(ind)  -nan(ind)
  183                     2.23   -nan(ind)  -nan(ind)  -nan(ind)  -nan(ind)  -nan(ind)  -nan(ind)  -nan(ind)  -nan(ind)  -nan(ind)
  184                     1.43   -nan(ind)  -nan(ind)  -nan(ind)  -nan(ind)  -nan(ind)  -nan(ind)  -nan(ind)  -nan(ind)  -nan(ind)
  185                     2.48   -nan(ind)  -nan(ind)  -nan(ind)  -nan(ind)  -nan(ind)  -nan(ind)  -nan(ind)  -nan(ind)  -nan(ind)
  186                     1.72   -nan(ind)  -nan(ind)  -nan(ind)  -nan(ind)  -nan(ind)  -nan(ind)  -nan(ind)  -nan(ind)  -nan(ind)
  187                     2.96   -nan(ind)  -nan(ind)  -nan(ind)  -nan(ind)  -nan(ind)  -nan(ind)  -nan(ind)  -nan(ind)  -nan(ind)
  188                     1.88   -nan(ind)  -nan(ind)  -nan(ind)  -nan(ind)  -nan(ind)  -nan(ind)  -nan(ind)  -nan(ind)  -nan(ind)
  189                     1.00   -nan(ind)  -nan(ind)  -nan(ind)  -nan(ind)  -nan(ind)  -nan(ind)  -nan(ind)  -nan(ind)  -nan(ind)
  190                     1.00   -nan(ind)  -nan(ind)  -nan(ind)  -nan(ind)  -nan(ind)  -nan(ind)  -nan(ind)  -nan(ind)  -nan(ind)
  191                     1.34   -nan(ind)  -nan(ind)  -nan(ind)  -nan(ind)  -nan(ind)  -nan(ind)  -nan(ind)  -nan(ind)  -nan(ind)
  192                     1.50   -nan(ind)  -nan(ind)  -nan(ind)  -nan(ind)  -nan(ind)  -nan(ind)  -nan(ind)  -nan(ind)  -nan(ind)
  193                     1.00   -nan(ind)  -nan(ind)  -nan(ind)  -nan(ind)  -nan(ind)  -nan(ind)  -nan(ind)  -nan(ind)  -nan(ind)
  194                     1.00   -nan(ind)  -nan(ind)  -nan(ind)  -nan(ind)  -nan(ind)  -nan(ind)  -nan(ind)  -nan(ind)  -nan(ind)
  195                     1.00   -nan(ind)  -nan(ind)  -nan(ind)  -nan(ind)  -nan(ind)  -nan(ind)  -nan(ind)  -nan(ind)  -nan(ind)
  196                     1.00   -nan(ind)  -nan(ind)  -nan(ind)  -nan(ind)  -nan(ind)  -nan(ind)  -nan(ind)  -nan(ind)  -nan(ind)
  197                     1.00   -nan(ind)  -nan(ind)  -nan(ind)  -nan(ind)  -nan(ind)  -nan(ind)  -nan(ind)  -nan(ind)  -nan(ind)
  198                     1.24   -nan(ind)  -nan(ind)  -nan(ind)  -nan(ind)  -nan(ind)  -nan(ind)  -nan(ind)  -nan(ind)  -nan(ind)
  199                     3.13   -nan(ind)  -nan(ind)  -nan(ind)  -nan(ind)  -nan(ind)  -nan(ind)  -nan(ind)  -nan(ind)  -nan(ind)
  200                     2.23   -nan(ind)  -nan(ind)  -nan(ind)  -nan(ind)  -nan(ind)  -nan(ind)  -nan(ind)  -nan(ind)  -nan(ind)
  201                     1.00   -nan(ind)  -nan(ind)  -nan(ind)  -nan(ind)  -nan(ind)  -nan(ind)  -nan(ind)  -nan(ind)  -nan(ind)
  202                     1.36   -nan(ind)  -nan(ind)  -nan(ind)  -nan(ind)  -nan(ind)  -nan(ind)  -nan(ind)  -nan(ind)  -nan(ind)
  203                     1.44   -nan(ind)  -nan(ind)  -nan(ind)  -nan(ind)  -nan(ind)  -nan(ind)  -nan(ind)  -nan(ind)  -nan(ind)
  204                     1.58   -nan(ind)  -nan(ind)  -nan(ind)  -nan(ind)  -nan(ind)  -nan(ind)  -nan(ind)  -nan(ind)  -nan(ind)
  205                     4.15   -nan(ind)  -nan(ind)  -nan(ind)  -nan(ind)  -nan(ind)  -nan(ind)  -nan(ind)  -nan(ind)  -nan(ind)
  206                     1.00   -nan(ind)  -nan(ind)  -nan(ind)  -nan(ind)  -nan(ind)  -nan(ind)  -nan(ind)  -nan(ind)  -nan(ind)
  207                     1.00   -nan(ind)  -nan(ind)  -nan(ind)  -nan(ind)  -nan(ind)  -nan(ind)  -nan(ind)  -nan(ind)  -nan(ind)
  208                     1.10   -nan(ind)  -nan(ind)  -nan(ind)  -nan(ind)  -nan(ind)  -nan(ind)  -nan(ind)  -nan(ind)  -nan(ind)
  209                     1.00   -nan(ind)  -nan(ind)  -nan(ind)  -nan(ind)  -nan(ind)  -nan(ind)  -nan(ind)  -nan(ind)  -nan(ind)
  210                     1.00   -nan(ind)  -nan(ind)  -nan(ind)  -nan(ind)  -nan(ind)  -nan(ind)  -nan(ind)  -nan(ind)  -nan(ind)
  211                     1.43   -nan(ind)  -nan(ind)  -nan(ind)  -nan(ind)  -nan(ind)  -nan(ind)  -nan(ind)  -nan(ind)  -nan(ind)
  212                     2.80   -nan(ind)  -nan(ind)  -nan(ind)  -nan(ind)  -nan(ind)  -nan(ind)  -nan(ind)  -nan(ind)  -nan(ind)
  213                     1.00   -nan(ind)  -nan(ind)  -nan(ind)  -nan(ind)  -nan(ind)  -nan(ind)  -nan(ind)  -nan(ind)  -nan(ind)
  214                     1.00   -nan(ind)  -nan(ind)  -nan(ind)  -nan(ind)  -nan(ind)  -nan(ind)  -nan(ind)  -nan(ind)  -nan(ind)
  215                     1.10   -nan(ind)  -nan(ind)  -nan(ind)  -nan(ind)  -nan(ind)  -nan(ind)  -nan(ind)  -nan(ind)  -nan(ind)
  216                     1.18   -nan(ind)  -nan(ind)  -nan(ind)  -nan(ind)  -nan(ind)  -nan(ind)  -nan(ind)  -nan(ind)  -nan(ind)
  217                     1.45   -nan(ind)  -nan(ind)  -nan(ind)  -nan(ind)  -nan(ind)  -nan(ind)  -nan(ind)  -nan(ind)  -nan(ind)
  218                     1.00   -nan(ind)  -nan(ind)  -nan(ind)  -nan(ind)  -nan(ind)  -nan(ind)  -nan(ind)  -nan(ind)  -nan(ind)
  219                     1.60   -nan(ind)  -nan(ind)  -nan(ind)  -nan(ind)  -nan(ind)  -nan(ind)  -nan(ind)  -nan(ind)  -nan(ind)
  680789                  1.00   -nan(ind)  -nan(ind)  -nan(ind)  -nan(ind)  -nan(ind)  -nan(ind)  -nan(ind)  -nan(ind)  -nan(ind)
  517063                  1.00   -nan(ind)  -nan(ind)  -nan(ind)  -nan(ind)  -nan(ind)  -nan(ind)  -nan(ind)  -nan(ind)  -nan(ind)
  517062                  1.90   -nan(ind)  -nan(ind)  -nan(ind)  -nan(ind)  -nan(ind)  -nan(ind)  -nan(ind)  -nan(ind)  -nan(ind)
  524648                 59.38   -nan(ind)  -nan(ind)  -nan(ind)  -nan(ind)  -nan(ind)  -nan(ind)  -nan(ind)  -nan(ind)  -nan(ind)
  315020                  1.37   -nan(ind)  -nan(ind)  -nan(ind)  -nan(ind)  -nan(ind)  -nan(ind)  -nan(ind)  -nan(ind)  -nan(ind)
  315021                  1.51   -nan(ind)  -nan(ind)  -nan(ind)  -nan(ind)  -nan(ind)  -nan(ind)  -nan(ind)  -nan(ind)  -nan(ind)
  315019                  4.37   -nan(ind)  -nan(ind)  -nan(ind)  -nan(ind)  -nan(ind)  -nan(ind)  -nan(ind)  -nan(ind)  -nan(ind)
  VERTIDO_EBAR_STA_MARIA    1.00   -nan(ind)  -nan(ind)  -nan(ind)  -nan(ind)  -nan(ind)  -nan(ind)  -nan(ind)  -nan(ind)  -nan(ind)
  526514                  3.89   -nan(ind)  -nan(ind)  -nan(ind)  -nan(ind)  -nan(ind)  -nan(ind)  -nan(ind)  -nan(ind)  -nan(ind)
  526515                  9.43   -nan(ind)  -nan(ind)  -nan(ind)  -nan(ind)  -nan(ind)  -nan(ind)  -nan(ind)  -nan(ind)  -nan(ind)
  526516                  9.94   -nan(ind)  -nan(ind)  -nan(ind)  -nan(ind)  -nan(ind)  -nan(ind)  -nan(ind)  -nan(ind)  -nan(ind)
  526512                  1.00   -nan(ind)  -nan(ind)  -nan(ind)  -nan(ind)  -nan(ind)  -nan(ind)  -nan(ind)  -nan(ind)  -nan(ind)
  526504                  1.50   -nan(ind)  -nan(ind)  -nan(ind)  -nan(ind)  -nan(ind)  -nan(ind)  -nan(ind)  -nan(ind)  -nan(ind)
  526503                  4.76   -nan(ind)  -nan(ind)  -nan(ind)  -nan(ind)  -nan(ind)  -nan(ind)  -nan(ind)  -nan(ind)  -nan(ind)
  526510                 16.65   -nan(ind)  -nan(ind)  -nan(ind)  -nan(ind)  -nan(ind)  -nan(ind)  -nan(ind)  -nan(ind)  -nan(ind)
  526491                  2.13   -nan(ind)  -nan(ind)  -nan(ind)  -nan(ind)  -nan(ind)  -nan(ind)  -nan(ind)  -nan(ind)  -nan(ind)
  526492                  1.75   -nan(ind)  -nan(ind)  -nan(ind)  -nan(ind)  -nan(ind)  -nan(ind)  -nan(ind)  -nan(ind)  -nan(ind)
  526509                  9.41   -nan(ind)  -nan(ind)  -nan(ind)  -nan(ind)  -nan(ind)  -nan(ind)  -nan(ind)  -nan(ind)  -nan(ind)
  526524                  1.65   -nan(ind)  -nan(ind)  -nan(ind)  -nan(ind)  -nan(ind)  -nan(ind)  -nan(ind)  -nan(ind)  -nan(ind)
  526518                  1.00   -nan(ind)  -nan(ind)  -nan(ind)  -nan(ind)  -nan(ind)  -nan(ind)  -nan(ind)  -nan(ind)  -nan(ind)
  526517                  1.00   -nan(ind)  -nan(ind)  -nan(ind)  -nan(ind)  -nan(ind)  -nan(ind)  -nan(ind)  -nan(ind)  -nan(ind)
  526519                  7.40   -nan(ind)  -nan(ind)  -nan(ind)  -nan(ind)  -nan(ind)  -nan(ind)  -nan(ind)  -nan(ind)  -nan(ind)
  526523                  1.00   -nan(ind)  -nan(ind)  -nan(ind)  -nan(ind)  -nan(ind)  -nan(ind)  -nan(ind)  -nan(ind)  -nan(ind)
  526489                  1.00   -nan(ind)  -nan(ind)  -nan(ind)  -nan(ind)  -nan(ind)  -nan(ind)  -nan(ind)  -nan(ind)  -nan(ind)
  526486                  1.79   -nan(ind)  -nan(ind)  -nan(ind)  -nan(ind)  -nan(ind)  -nan(ind)  -nan(ind)  -nan(ind)  -nan(ind)
  526465                  1.00   -nan(ind)  -nan(ind)  -nan(ind)  -nan(ind)  -nan(ind)  -nan(ind)  -nan(ind)  -nan(ind)  -nan(ind)
  526466                  1.00   -nan(ind)  -nan(ind)  -nan(ind)  -nan(ind)  -nan(ind)  -nan(ind)  -nan(ind)  -nan(ind)  -nan(ind)
  526467                  1.00   -nan(ind)  -nan(ind)  -nan(ind)  -nan(ind)  -nan(ind)  -nan(ind)  -nan(ind)  -nan(ind)  -nan(ind)
  526468                  3.98   -nan(ind)  -nan(ind)  -nan(ind)  -nan(ind)  -nan(ind)  -nan(ind)  -nan(ind)  -nan(ind)  -nan(ind)
  526475                  2.62   -nan(ind)  -nan(ind)  -nan(ind)  -nan(ind)  -nan(ind)  -nan(ind)  -nan(ind)  -nan(ind)  -nan(ind)
  526481                  1.23   -nan(ind)  -nan(ind)  -nan(ind)  -nan(ind)  -nan(ind)  -nan(ind)  -nan(ind)  -nan(ind)  -nan(ind)
  166265                  4.71   -nan(ind)  -nan(ind)  -nan(ind)  -nan(ind)  -nan(ind)  -nan(ind)  -nan(ind)  -nan(ind)  -nan(ind)
  526476                  1.00   -nan(ind)  -nan(ind)  -nan(ind)  -nan(ind)  -nan(ind)  -nan(ind)  -nan(ind)  -nan(ind)  -nan(ind)
  526477                  6.12   -nan(ind)  -nan(ind)  -nan(ind)  -nan(ind)  -nan(ind)  -nan(ind)  -nan(ind)  -nan(ind)  -nan(ind)
  526478                  2.00   -nan(ind)  -nan(ind)  -nan(ind)  -nan(ind)  -nan(ind)  -nan(ind)  -nan(ind)  -nan(ind)  -nan(ind)
  220                    17.23   -nan(ind)  -nan(ind)  -nan(ind)  -nan(ind)  -nan(ind)  -nan(ind)  -nan(ind)  -nan(ind)  -nan(ind)
  221                     1.00   -nan(ind)  -nan(ind)  -nan(ind)  -nan(ind)  -nan(ind)  -nan(ind)  -nan(ind)  -nan(ind)  -nan(ind)
  222                    14.29   -nan(ind)  -nan(ind)  -nan(ind)  -nan(ind)  -nan(ind)  -nan(ind)  -nan(ind)  -nan(ind)  -nan(ind)
  215113                 53.52   -nan(ind)  -nan(ind)  -nan(ind)  -nan(ind)  -nan(ind)  -nan(ind)  -nan(ind)  -nan(ind)  -nan(ind)
  526542                  1.00   -nan(ind)  -nan(ind)  -nan(ind)  -nan(ind)  -nan(ind)  -nan(ind)  -nan(ind)  -nan(ind)  -nan(ind)
  526543                  1.00   -nan(ind)  -nan(ind)  -nan(ind)  -nan(ind)  -nan(ind)  -nan(ind)  -nan(ind)  -nan(ind)  -nan(ind)
  526544                  1.00   -nan(ind)  -nan(ind)  -nan(ind)  -nan(ind)  -nan(ind)  -nan(ind)  -nan(ind)  -nan(ind)  -nan(ind)
  526545                  1.36   -nan(ind)  -nan(ind)  -nan(ind)  -nan(ind)  -nan(ind)  -nan(ind)  -nan(ind)  -nan(ind)  -nan(ind)
  526546                  1.04   -nan(ind)  -nan(ind)  -nan(ind)  -nan(ind)  -nan(ind)  -nan(ind)  -nan(ind)  -nan(ind)  -nan(ind)
  526547                  1.00   -nan(ind)  -nan(ind)  -nan(ind)  -nan(ind)  -nan(ind)  -nan(ind)  -nan(ind)  -nan(ind)  -nan(ind)
  526548                  1.00   -nan(ind)  -nan(ind)  -nan(ind)  -nan(ind)  -nan(ind)  -nan(ind)  -nan(ind)  -nan(ind)  -nan(ind)
  223                     1.00   -nan(ind)  -nan(ind)  -nan(ind)  -nan(ind)  -nan(ind)  -nan(ind)  -nan(ind)  -nan(ind)  -nan(ind)
  526559                  1.00   -nan(ind)  -nan(ind)  -nan(ind)  -nan(ind)  -nan(ind)  -nan(ind)  -nan(ind)  -nan(ind)  -nan(ind)
  526541                  1.00   -nan(ind)  -nan(ind)  -nan(ind)  -nan(ind)  -nan(ind)  -nan(ind)  -nan(ind)  -nan(ind)  -nan(ind)
  ORIFICIO2               3.97   -nan(ind)  -nan(ind)  -nan(ind)  -nan(ind)  -nan(ind)  -nan(ind)  -nan(ind)  -nan(ind)  -nan(ind)
  224                     1.26   -nan(ind)  -nan(ind)  -nan(ind)  -nan(ind)  -nan(ind)  -nan(ind)  -nan(ind)  -nan(ind)  -nan(ind)
  225                     1.19   -nan(ind)  -nan(ind)  -nan(ind)  -nan(ind)  -nan(ind)  -nan(ind)  -nan(ind)  -nan(ind)  -nan(ind)
  12872                   1.00   -nan(ind)  -nan(ind)  -nan(ind)  -nan(ind)  -nan(ind)  -nan(ind)  -nan(ind)  -nan(ind)  -nan(ind)
  
  
  *************************
  Conduit Surcharge Summary
  *************************
  
  No conduits were surcharged.
  
  
  ***************
  Pumping Summary
  ***************
  
  ---------------------------------------------------------------------------------------------------------
                                                  Min       Avg       Max     Total     Power    % Time Off
                        Percent   Number of      Flow      Flow      Flow    Volume     Usage    Pump Curve
  Pump                 Utilized   Start-Ups       CMS       CMS       CMS  10^6 ltr     Kw-hr    Low   High
  ---------------------------------------------------------------------------------------------------------
  EBAR_VALDEMANCO      -nan(ind)           0      0.00      0.00      0.00     0.000      0.00    0.0    0.0
  EBAR_STA_MARIA       -nan(ind)           0      0.00      0.00      0.00     0.000      0.00    0.0    0.0
  

  Analysis begun on:  Sat Nov 30 08:10:57 2019
  Analysis ended on:  Sat Nov 30 08:10:57 2019
  Total elapsed time: < 1 sec