
  EPA STORM WATER MANAGEMENT MODEL - VERSION 5.1 (Build 5.1.013)
  --------------------------------------------------------------

  Bustarviejo 
  Situación actual 
  Hipótesis 2: Caudal máximo. 
  
  WARNING 08: elevation drop exceeds length for Conduit 31082
  WARNING 04: minimum elevation drop used for Conduit 51392
  WARNING 04: minimum elevation drop used for Conduit 517010
  WARNING 08: elevation drop exceeds length for Conduit 222
  WARNING 08: elevation drop exceeds length for Conduit 215113
  WARNING 04: minimum elevation drop used for Conduit ORIFICIO2
  WARNING 02: maximum depth increased for Node P.24NJ-430
  WARNING 02: maximum depth increased for Node 53412
  
  *********************************************************
  NOTE: The summary statistics displayed in this report are
  based on results found at every computational time step,  
  not just on results from each reporting time step.
  *********************************************************
  
  ****************
  Analysis Options
  ****************
  Flow Units ............... CMS
  Process Models:
    Rainfall/Runoff ........ YES
    RDII ................... NO
    Snowmelt ............... NO
    Groundwater ............ NO
    Flow Routing ........... YES
    Ponding Allowed ........ NO
    Water Quality .......... NO
  Infiltration Method ...... CURVE_NUMBER
  Flow Routing Method ...... DYNWAVE
  Surcharge Method ......... EXTRAN
  Starting Date ............ 05/01/2013 00:00:00
  Ending Date .............. 05/01/2013 06:00:00
  Antecedent Dry Days ...... 5.0
  Report Time Step ......... 00:00:30
  Wet Time Step ............ 00:00:30
  Dry Time Step ............ 00:00:30
  Routing Time Step ........ 5.00 sec
  Variable Time Step ....... YES
  Maximum Trials ........... 8
  Number of Threads ........ 1
  Head Tolerance ........... 0.001524 m
  
  
  **************************        Volume         Depth
  Runoff Quantity Continuity     hectare-m            mm
  **************************     ---------       -------
  Total Precipitation ......         6.634        28.781
  Evaporation Loss .........         0.000         0.000
  Infiltration Loss ........         4.838        20.991
  Surface Runoff ...........         1.357         5.886
  Final Storage ............         0.439         1.906
  Continuity Error (%) .....        -0.005
  
  
  **************************        Volume        Volume
  Flow Routing Continuity        hectare-m      10^6 ltr
  **************************     ---------     ---------
  Dry Weather Inflow .......       157.790      1577.918
  Wet Weather Inflow .......         1.356        13.563
  Groundwater Inflow .......         0.000         0.000
  RDII Inflow ..............         0.000         0.000
  External Inflow ..........         0.000         0.000
  External Outflow .........        11.401       114.013
  Flooding Loss ............       147.484      1474.858
  Evaporation Loss .........         0.000         0.000
  Exfiltration Loss ........         0.000         0.000
  Initial Stored Volume ....         0.000         0.000
  Final Stored Volume ......         0.579         5.789
  Continuity Error (%) .....        -0.200
  
  
  *************************
  Highest Continuity Errors
  *************************
  Node P.24LM-13 (94.54%)
  Node P10 (78.68%)
  Node P.24ML-72 (66.55%)
  Node P.24LM-82 (58.34%)
  Node P.24NJ-295 (53.63%)
  
  
  ***************************
  Time-Step Critical Elements
  ***************************
  Link 26307 (73.08%)
  Link 526504 (17.15%)
  Link 141920 (3.53%)
  Link 526537 (1.51%)
  
  
  ********************************
  Highest Flow Instability Indexes
  ********************************
  Link 100 (148)
  Link 76253 (148)
  Link 247740 (148)
  Link 239941 (147)
  Link 110154 (147)
  
  
  *************************
  Routing Time Step Summary
  *************************
  Minimum Time Step           :     0.50 sec
  Average Time Step           :     2.19 sec
  Maximum Time Step           :     2.29 sec
  Percent in Steady State     :     0.00
  Average Iterations per Step :     7.92
  Percent Not Converging      :    89.58
  
  
  ***************************
  Subcatchment Runoff Summary
  ***************************
  
  ------------------------------------------------------------------------------------------------------------------------------
                            Total      Total      Total      Total     Imperv       Perv      Total       Total     Peak  Runoff
                           Precip      Runon       Evap      Infil     Runoff     Runoff     Runoff      Runoff   Runoff   Coeff
  Subcatchment                 mm         mm         mm         mm         mm         mm         mm    10^6 ltr      CMS
  ------------------------------------------------------------------------------------------------------------------------------
  PV1                       28.78       0.00       0.00       5.47      19.38       0.03      19.41        0.02     0.01   0.675
  PV2                       28.78       0.00       0.00       5.47      19.33       0.03      19.37        0.02     0.01   0.673
  PV3                       28.78       0.00       0.00      20.64       6.40       0.02       6.42        0.01     0.01   0.223
  PV4                       28.78       0.00       0.00       5.48      18.46       0.02      18.48        0.03     0.01   0.642
  PV5                       28.78       0.00       0.00      10.99      14.53       0.03      14.55        0.02     0.01   0.506
  PV6                       28.78       0.00       0.00       5.47      19.54       0.04      19.58        0.02     0.01   0.680
  PV7                       28.78       0.00       0.00      10.97      15.18       0.04      15.22        0.03     0.01   0.529
  PV8                       28.78       0.00       0.00      13.71      12.97       0.06      13.03        0.01     0.00   0.453
  PV9                       28.78       0.00       0.00       5.44      20.53       0.07      20.59        0.01     0.00   0.716
  PV10                      28.78       0.00       0.00      16.48      10.36       0.05      10.41        0.04     0.02   0.362
  PV11                      28.78       0.00       0.00       2.71      22.66       0.05      22.71        0.01     0.01   0.789
  PV12                      28.78       0.00       0.00      13.74      12.74       0.04      12.78        0.01     0.01   0.444
  PV13                      28.78       0.00       0.00      13.71      12.89       0.05      12.94        0.01     0.00   0.450
  PV14                      28.78       0.00       0.00      25.01       3.98       2.37       2.37        0.01     0.00   0.082
  PV15                      28.78       0.00       0.00      10.99      14.49       0.03      14.51        0.02     0.01   0.504
  PV16                      28.78       0.00       0.00      10.97      15.16       0.04      15.21        0.01     0.01   0.528
  PV17                      28.78       0.00       0.00       5.48      18.82       0.03      18.85        0.02     0.01   0.655
  PV18                      28.78       0.00       0.00      13.74      11.97       0.02      11.99        0.02     0.01   0.417
  PV19                      28.78       0.00       0.00       2.71      22.55       0.05      22.59        0.01     0.01   0.785
  PV20                      28.78       0.00       0.00       5.45      20.25       0.05      20.31        0.01     0.01   0.706
  PV21                      28.78       0.00       0.00       2.68      23.36       0.07      23.44        0.01     0.00   0.814
  PV22                      28.78       0.00       0.00       2.70      22.80       0.05      22.85        0.01     0.01   0.794
  PV23                      28.78       0.00       0.00       2.69      23.20       0.07      23.27        0.01     0.00   0.808
  PV24                      28.78       0.00       0.00       5.46      19.83       0.04      19.88        0.02     0.01   0.691
  PV25                      28.78       0.00       0.00       5.40      20.91       0.10      21.02        0.01     0.00   0.730
  PV26                      28.78       0.00       0.00       5.46      19.81       0.04      19.85        0.02     0.01   0.690
  PV27                      28.78       0.00       0.00      10.97      15.23       0.05      15.27        0.01     0.01   0.531
  PV28                      28.78       0.00       0.00      20.61       6.57       0.06       6.63        0.02     0.02   0.230
  PV29                      28.78       0.00       0.00      16.48      10.31       0.04      10.35        0.05     0.02   0.360
  PV30                      28.78       0.00       0.00      13.71      12.82       0.05      12.87        0.01     0.01   0.447
  PV31                      28.78       0.00       0.00      20.52       7.96       6.72       6.72        0.01     0.00   0.233
  PV32                      28.78       0.00       0.00      13.74      12.70       0.04      12.74        0.01     0.01   0.443
  PV33                      28.78       0.00       0.00      13.71      12.87       0.05      12.92        0.01     0.00   0.449
  PV34                      28.78       0.00       0.00      13.63      13.18       0.13      13.31        0.00     0.00   0.463
  PV35                      28.78       0.00       0.00       2.70      22.87       0.05      22.93        0.01     0.01   0.797
  PV36                      28.78       0.00       0.00       5.41      20.85       0.09      20.94        0.01     0.00   0.728
  PV37                      28.78       0.00       0.00      13.71      12.97       0.06      13.03        0.01     0.00   0.453
  PV38                      28.78       0.00       0.00       2.71      22.57       0.05      22.62        0.01     0.01   0.786
  PV39                      28.78       0.00       0.00       5.45      20.21       0.05      20.26        0.07     0.03   0.704
  PV40                      28.78       0.00       0.00      13.74      12.48       0.03      12.51        0.08     0.03   0.435
  PV41                      28.78       0.00       0.00      25.83       5.29       1.45       1.45        0.02     0.01   0.050
  PV42                      28.78       0.00       0.00      25.88       3.98       1.52       1.52        0.01     0.00   0.053
  PV43                      28.78       0.00       0.00      26.89       2.65       0.51       0.51        0.00     0.00   0.018
  PV44                      28.78       0.00       0.00      26.83       1.33       0.65       0.65        0.00     0.00   0.022
  PV45                      28.78       0.00       0.00      26.36       3.97       1.01       1.01        0.01     0.01   0.035
  PV46                      28.78       0.00       0.00      25.53       3.98       1.85       1.85        0.01     0.01   0.064
  PV47                      28.78       0.00       0.00      27.12       1.33       0.38       0.38        0.00     0.00   0.013
  PV48                      28.78       0.00       0.00      25.65       2.65       1.78       1.78        0.00     0.00   0.062
  PV49                      28.78       0.54       0.00      26.62       2.71       1.36       1.36        0.01     0.00   0.046
  PV50                      28.78       1.07       0.00      28.04       0.00       0.56       0.56        0.00     0.00   0.019
  PV51                      28.78       0.00       0.00      26.68       1.33       0.82       0.82        0.00     0.00   0.029
  PV52                      28.78       0.00       0.00      26.98       1.33       0.49       0.49        0.00     0.00   0.017
  PV53                      28.78       0.00       0.00      26.91       0.00       0.63       0.63        0.00     0.00   0.022
  PV54                      28.78       0.00       0.00      24.60       6.61       2.63       2.63        0.02     0.01   0.091
  PV55                      28.78       0.00       0.00      24.89       5.30       2.43       2.43        0.01     0.01   0.085
  PV56                      28.78       0.00       0.00      24.93       5.30       2.39       2.39        0.01     0.00   0.083
  PV57                      28.78       0.00       0.00      25.27       3.98       2.13       2.13        0.01     0.00   0.074
  PV58                      28.78       0.00       0.00      23.68       6.62       3.58       3.58        0.01     0.01   0.124
  PV59                      28.78       0.00       0.00      20.20       7.96       7.03       7.03        0.00     0.00   0.244
  PV60                      28.78       0.00       0.00      27.07       1.33       0.40       0.40        0.00     0.00   0.014
  PV61                      28.78       0.00       0.00      26.49       5.25       0.73       0.73        0.01     0.01   0.025
  PV62                      28.78       0.00       0.00      26.04       5.28       1.24       1.24        0.01     0.01   0.043
  PV63                      28.78       0.00       0.00      25.79       5.29       1.52       1.52        0.01     0.01   0.053
  PV64                      28.78       0.00       0.00      20.97      10.54       6.04       6.04        0.01     0.00   0.210
  PV65                      28.78       0.00       0.00      24.88       3.98       2.50       2.50        0.01     0.00   0.087
  PV66                      28.78       0.00       0.00      21.56       7.95       5.64       5.64        0.02     0.01   0.196
  PV67                      28.78       0.00       0.00      21.96       7.95       5.24       5.24        0.02     0.01   0.182
  PV68                      28.78       0.00       0.00      23.86       7.92       3.31       3.31        0.01     0.00   0.115
  PV69                      28.78       4.00       0.00      30.80       0.00       0.73       0.73        0.01     0.00   0.022
  PV70                      28.78       0.00       0.00      22.02       3.90       0.00       3.90        0.05     0.01   0.136
  PV71                      28.78       5.49       0.00      19.19       8.26       0.02       8.28        0.07     0.01   0.242
  PV72                      28.78       0.00       0.00      27.42       0.00       0.13       0.13        0.00     0.00   0.005
  PV73                      28.78       0.00       0.00      19.27       4.64       0.00       4.64        0.07     0.01   0.161
  PV74A                     28.78       0.00       0.00      13.76      11.09       0.01      11.10        0.03     0.01   0.386
  PV74B                     28.78       0.00       0.00      19.27       5.80       0.00       5.81        0.05     0.01   0.202
  PV75                      28.78       0.00       0.00      22.03       7.95       5.16       5.16        0.02     0.01   0.179
  PV76                      28.78       0.00       0.00      13.76       9.61       0.01       9.62        0.05     0.01   0.334
  PV77                      28.78       0.00       0.00      19.27       6.16       0.01       6.16        0.04     0.01   0.214
  PV78                      28.78       0.00       0.00      19.27       6.90       0.01       6.91        0.03     0.01   0.240
  PV79                      28.78       0.00       0.00      19.27       6.82       0.01       6.83        0.03     0.01   0.237
  PV80                      28.78       0.00       0.00      19.27       7.04       0.01       7.05        0.03     0.01   0.245
  PV81                      28.78       0.00       0.00      19.27       6.83       0.01       6.84        0.03     0.01   0.238
  PV82                      28.78       0.00       0.00      25.74       2.65       1.70       1.70        0.00     0.00   0.059
  PV83                      28.78       0.00       0.00      27.28       0.53       0.22       0.22        0.00     0.00   0.008
  PV84                      28.78       0.00       0.00      26.48       2.65       0.95       0.95        0.00     0.00   0.033
  PV85                      28.78       0.17       0.00      27.17       2.67       0.45       0.45        0.01     0.00   0.015
  PV86                      28.78       0.00       0.00      25.79       5.29       1.49       1.49        0.02     0.01   0.052
  PV87                      28.78       0.00       0.00      27.12       1.33       0.36       0.36        0.00     0.00   0.013
  PV88                      28.78       0.00       0.00      26.49       3.97       0.86       0.86        0.01     0.00   0.030
  PV89                      28.78       0.08       0.00      27.53       0.00       0.09       0.09        0.00     0.00   0.003
  PV90                      28.78       0.00       0.00      26.39       2.65       1.03       1.03        0.00     0.00   0.036
  PV91                      28.78       0.00       0.00      16.94      13.20       9.97       9.97        0.05     0.02   0.346
  PV92                      28.78       0.00       0.00      13.71      12.91       0.06      12.97        0.01     0.00   0.451
  PV93                      28.78       0.00       0.00      23.49       6.63       3.79       3.79        0.01     0.00   0.132
  PV94                      28.78       0.00       0.00      13.76      11.10       0.01      11.11        0.03     0.01   0.386
  PV95                      28.78       0.00       0.00      22.02       5.18       0.02       5.20        0.04     0.02   0.181
  PV96                      28.78       0.00       0.00      13.71      12.92       0.06      12.98        0.01     0.00   0.451
  PV97                      28.78       0.00       0.00       5.39      20.96       0.11      21.07        0.01     0.00   0.732
  PV98                      28.78       0.00       0.00      10.99      14.59       0.03      14.61        0.02     0.01   0.508
  PV99                      28.78       0.00       0.00      25.83       2.65       1.62       1.62        0.00     0.00   0.056
  PV100                     28.78       0.00       0.00      13.74      12.43       0.03      12.46        0.02     0.01   0.433
  PV101                     28.78       0.00       0.00      20.88       7.96       6.35       6.35        0.01     0.01   0.221
  PV102                     28.78       0.00       0.00      21.13       7.96       6.08       6.08        0.02     0.01   0.211
  PV103                     28.78      16.17       0.00      28.50       8.53      14.99      14.99        0.01     0.01   0.333
  PV104                     28.78       0.00       0.00      21.81       7.95       5.41       5.41        0.02     0.01   0.188
  PV105                     28.78       0.00       0.00      16.52       6.60       0.00       6.60        0.06     0.01   0.229
  PV106                     28.78       0.00       0.00      27.37       0.00       0.18       0.18        0.00     0.00   0.006
  PV107                     28.78       0.00       0.00      26.14       0.00       1.37       1.37        0.00     0.00   0.048
  PB1                       28.78       0.00       0.00      26.48       2.65       0.94       0.94        0.00     0.00   0.033
  PB2                       28.78       0.00       0.00      24.48       5.30       2.83       2.83        0.01     0.00   0.098
  PB3                       28.78       0.00       0.00       5.47      19.47       0.04      19.50        0.02     0.01   0.678
  PB4                       28.78       0.00       0.00       5.47      19.28       0.03      19.31        0.02     0.01   0.671
  PB5                       28.78       0.00       0.00       5.47      18.93       0.03      18.96        0.02     0.01   0.659
  PB6                       28.78       0.00       0.00       5.47      19.62       0.04      19.66        0.02     0.01   0.683
  PB7                       28.78       0.00       0.00       5.46      19.82       0.04      19.86        0.02     0.01   0.690
  PB8                       28.78       0.00       0.00       5.45      20.20       0.05      20.25        0.01     0.01   0.704
  PB9                       28.78       2.29       0.00      22.93       8.63       6.59       6.59        0.02     0.01   0.212
  PB10                      28.78       0.00       0.00      19.50      10.58       7.58       7.58        0.02     0.01   0.263
  PB11                      28.78       0.70       0.00      26.08       5.43       1.91       1.91        0.02     0.01   0.065
  PB12                      28.78       0.00       0.00      25.50       5.29       1.81       1.81        0.01     0.01   0.063
  PB13                      28.78       0.00       0.00      23.99       5.30       3.32       3.32        0.01     0.00   0.115
  PB14                      28.78       0.00       0.00      27.22       0.00       0.31       0.31        0.00     0.00   0.011
  PB15                      28.78       0.00       0.00      27.17       0.00       0.37       0.37        0.00     0.00   0.013
  PB16                      28.78       0.00       0.00      27.06       0.00       0.49       0.49        0.00     0.00   0.017
  PB17                      28.78       0.00       0.00      10.99      14.51       0.03      14.53        0.05     0.02   0.505
  PB18                      28.78       0.00       0.00      25.14       3.98       2.25       2.25        0.01     0.00   0.078
  PB19                      28.78       0.00       0.00      11.92      18.15      14.46      14.46        0.03     0.01   0.503
  PB20                      28.78       0.00       0.00      17.37      13.18       9.51       9.51        0.03     0.01   0.330
  PB21                      28.78       0.00       0.00      23.18       7.93       4.02       4.02        0.03     0.01   0.140
  PB22                      28.78       0.00       0.00      21.89       7.95       5.33       5.33        0.02     0.01   0.185
  PB23                      28.78       0.00       0.00      16.66      13.21      10.26      10.26        0.02     0.01   0.357
  PB24                      28.78       0.00       0.00      13.74      12.71       0.04      12.75        0.01     0.01   0.443
  PB25                      28.78       0.00       0.00      10.99      14.92       0.03      14.95        0.04     0.02   0.520
  PB26                      28.78       0.00       0.00      25.01       5.30       2.32       2.32        0.01     0.01   0.080
  PB27                      28.78       0.00       0.00      13.74      12.58       0.03      12.61        0.03     0.01   0.438
  PB28                      28.78       0.00       0.00      25.38       5.30       1.91       1.91        0.02     0.01   0.066
  PB29                      28.78       0.00       0.00      22.46       7.94       4.72       4.72        0.02     0.01   0.164
  PB30                      28.78       0.00       0.00      27.22       0.00       0.33       0.33        0.00     0.00   0.011
  PB31                      28.78       0.43       0.00      27.23       4.02       0.53       0.53        0.01     0.00   0.018
  PB32                      28.78       0.93       0.00      26.89       2.75       1.45       1.45        0.01     0.00   0.049
  PB33                      28.78       1.01       0.00      26.05       4.13       2.35       2.35        0.01     0.01   0.079
  PB34                      28.78       0.69       0.00      26.53       2.72       1.60       1.60        0.01     0.00   0.054
  PB35                      28.78       0.00       0.00      27.37       0.00       0.18       0.18        0.00     0.00   0.006
  PB36                      28.78       0.00       0.00      27.32       0.00       0.23       0.23        0.01     0.01   0.008
  PB37A                     28.78       0.00       0.00      27.22       0.00       0.32       0.32        0.00     0.00   0.011
  PB37B                     28.78       0.00       0.00      26.78       1.33       0.72       0.72        0.01     0.01   0.025
  PB37C                     28.78       0.00       0.00      27.12       0.00       0.43       0.43        0.01     0.01   0.015
  PB37D                     28.78       0.00       0.00      26.11       2.65       1.35       1.35        0.02     0.01   0.047
  PB38                      28.78       0.00       0.00      22.02       4.04       0.00       4.05        0.11     0.02   0.141
  PB39                      28.78       0.00       0.00      25.40       3.98       1.99       1.99        0.01     0.00   0.069
  PB40                      28.78       0.00       0.00      26.43       2.65       0.99       0.99        0.01     0.00   0.034
  PB41                      28.78       8.75       0.00      26.82       7.04       9.15       9.15        0.05     0.02   0.244
  PB42                      28.78       1.38       0.00      26.29       2.79       2.53       2.53        0.01     0.01   0.084
  PB43                      28.78       0.00       0.00      19.90      10.58       7.16       7.16        0.04     0.02   0.249
  PB44                      28.78       0.00       0.00      27.32       0.00       0.21       0.21        0.01     0.01   0.007
  PB45                      28.78       0.00       0.00      23.11       7.93       4.10       4.10        0.01     0.00   0.142
  PB46                      28.78       0.00       0.00      21.81       7.95       5.39       5.39        0.02     0.01   0.187
  PB47                      28.78       0.00       0.00      24.32       5.30       2.99       2.99        0.01     0.01   0.104
  PB48                      28.78       3.14       0.00      21.16      11.81       9.02       9.02        0.05     0.02   0.282
  PB49                      28.78       2.61       0.00      16.73      14.52      12.82      12.82        0.05     0.02   0.408
  PB50                      28.78       0.00       0.00      13.96      15.79      12.76      12.76        0.03     0.02   0.443
  PB51                      28.78      13.23       0.00      20.22      19.65      19.27      19.27        0.03     0.01   0.459
  PB52                      28.78       0.00       0.00      15.38      15.64      11.23      11.23        0.02     0.01   0.390
  PB53                      28.78       0.00       0.00      20.30      10.57       6.76       6.76        0.02     0.01   0.235
  PB54                      28.78       0.00       0.00      24.52       5.30       2.81       2.81        0.02     0.01   0.097
  PB55                      28.78       0.00       0.00      27.22       1.33       0.27       0.27        0.01     0.01   0.009
  PB56                      28.78       0.00       0.00      26.85       2.65       0.58       0.58        0.00     0.00   0.020
  PB57                      28.78       0.00       0.00      14.64      15.73      12.04      12.04        0.04     0.02   0.418
  PB58                      28.78       0.00       0.00       2.73      21.20       0.03      21.23        0.02     0.01   0.738
  PB59                      28.78       0.00       0.00       2.73      21.00       0.03      21.03        0.03     0.01   0.731
  PB60                      28.78       0.00       0.00      10.99      14.71       0.03      14.74        0.02     0.01   0.512
  PB61                      28.78       0.00       0.00       5.47      18.93       0.03      18.96        0.02     0.01   0.659
  PB62                      28.78       0.00       0.00      13.74      12.44       0.03      12.47        0.02     0.01   0.433
  PB63                      28.78       0.00       0.00       5.47      19.59       0.04      19.63        0.02     0.01   0.682
  PB64                      28.78       0.00       0.00      13.69      13.11       0.09      13.20        0.00     0.00   0.459
  PB65                      28.78       0.00       0.00      26.30       0.00       1.23       1.23        0.00     0.00   0.043
  PB66                      28.78       0.00       0.00       0.00      24.41       0.00      24.41        0.02     0.01   0.848
  PB67                      28.78       0.00       0.00       5.47      19.42       0.03      19.46        0.05     0.02   0.676
  PB68                      28.78       0.00       0.00       5.46      19.97       0.04      20.02        0.04     0.01   0.695
  PB69                      28.78       0.00       0.00       2.73      20.08       0.02      20.11        0.03     0.01   0.699
  PB70                      28.78       0.00       0.00       2.72      21.98       0.04      22.01        0.02     0.01   0.765
  PB71                      28.78       0.00       0.00       2.70      22.95       0.06      23.01        0.01     0.01   0.799
  PB72                      28.78       0.00       0.00      13.74      12.55       0.03      12.58        0.01     0.01   0.437
  PB73                      28.78       0.00       0.00       5.44      20.41       0.06      20.47        0.01     0.01   0.711
  PB74                      28.78       0.00       0.00       5.45      20.36       0.06      20.42        0.01     0.01   0.709
  PB75                      28.78       0.00       0.00       5.46      19.79       0.04      19.83        0.02     0.01   0.689
  PB76                      28.78       0.00       0.00       8.20      17.90       0.06      17.96        0.01     0.01   0.624
  PB77                      28.78       0.00       0.00      13.74      12.40       0.03      12.43        0.02     0.01   0.432
  PB78                      28.78       0.00       0.00      19.23       7.74       0.03       7.78        0.01     0.00   0.270
  PB79                      28.78       0.00       0.00      10.99      14.27       0.02      14.30        0.02     0.01   0.497
  PB80                      28.78       0.00       0.00      10.97      14.99       0.04      15.03        0.02     0.01   0.522
  PB81                      28.78       0.00       0.00       5.48      18.31       0.02      18.33        0.03     0.01   0.637
  PB82                      28.78       0.00       0.00      10.97      15.22       0.05      15.27        0.03     0.01   0.531
  PB83                      28.78       0.00       0.00      10.97      15.06       0.04      15.10        0.04     0.01   0.525
  PB84                      28.78       0.00       0.00      13.74      12.74       0.04      12.78        0.01     0.01   0.444
  PB85                      28.78       0.00       0.00      25.46       5.29       1.85       1.85        0.01     0.00   0.064
  PB86                      28.78       0.00       0.00       5.48      17.87       0.02      17.89        0.03     0.01   0.621
  PB87                      28.78       0.00       0.00      10.99      14.32       0.02      14.34        0.02     0.01   0.498
  PB88                      28.78       0.00       0.00       2.71      22.40       0.04      22.45        0.02     0.01   0.780
  PB89                      28.78       0.00       0.00      13.74      12.02       0.02      12.04        0.02     0.01   0.418
  PB90                      28.78       0.00       0.00       8.21      17.60       0.05      17.64        0.04     0.01   0.613
  PB91                      28.78       0.00       0.00      16.48      10.36       0.05      10.41        0.02     0.01   0.362
  PB92                      28.78       0.00       0.00       5.47      19.37       0.03      19.40        0.05     0.02   0.674
  PB93                      28.78       0.00       0.00       5.46      19.90       0.04      19.94        0.02     0.01   0.693
  PB94                      28.78       0.00       0.00       5.47      19.06       0.03      19.09        0.06     0.02   0.663
  PB95                      28.78       0.00       0.00      22.60       7.94       4.61       4.61        0.01     0.01   0.160
  PB96                      28.78       0.00       0.00      20.67      10.55       6.38       6.38        0.01     0.01   0.222
  PB97                      28.78       0.00       0.00       8.23      17.05       0.03      17.08        0.05     0.02   0.594
  PB98                      28.78       0.00       0.00      19.27       7.36       0.02       7.38        0.02     0.01   0.256
  PB99                      28.78       0.00       0.00       2.72      21.29       0.03      21.32        0.02     0.01   0.741
  PB100                     28.78       0.00       0.00       5.48      18.25       0.02      18.27        0.03     0.01   0.635
  PB101                     28.78       0.00       0.00      16.48       9.91       0.02       9.93        0.02     0.01   0.345
  PB102                     28.78       0.00       0.00      19.27       7.37       0.02       7.39        0.02     0.01   0.257
  PB103                     28.78       0.00       0.00      19.27       7.14       0.01       7.15        0.02     0.01   0.248
  PB104                     28.78       0.00       0.00      10.99      14.74       0.03      14.78        0.02     0.01   0.513
  PB105                     28.78       0.00       0.00      13.71      12.78       0.04      12.83        0.01     0.01   0.446
  PB106                     28.78       0.00       0.00      13.74      12.25       0.03      12.27        0.02     0.01   0.426
  PB107                     28.78       0.00       0.00      10.97      15.25       0.05      15.30        0.03     0.01   0.532
  PB108                     28.78       0.00       0.00      25.22       5.30       2.08       2.08        0.01     0.00   0.072
  PB109                     28.78       0.00       0.00      13.74      12.65       0.04      12.69        0.03     0.01   0.441
  PB110                     28.78       0.00       0.00      13.74      12.70       0.04      12.74        0.03     0.01   0.443
  PB111                     28.78       0.00       0.00      10.99      13.92       0.02      13.94        0.07     0.02   0.484
  PB112                     28.78       0.00       0.00      10.97      15.07       0.04      15.11        0.04     0.01   0.525
  PB113                     28.78       0.00       0.00      10.97      15.13       0.04      15.17        0.03     0.01   0.527
  PB114                     28.78       0.00       0.00      22.02       4.96       0.01       4.97        0.02     0.01   0.173
  PB115                     28.78       0.00       0.00      25.38       5.30       1.92       1.92        0.01     0.00   0.067
  PB116                     28.78       0.00       0.00      25.66       3.98       1.72       1.72        0.00     0.00   0.060
  PB117                     28.78       0.00       0.00      26.94       2.65       0.47       0.47        0.01     0.01   0.016
  PB118A                    28.78       0.00       0.00      13.76      11.51       0.02      11.52        0.07     0.02   0.400
  PB118B                    28.78       0.00       0.00      13.76      11.52       0.02      11.54        0.07     0.02   0.401
  PB119A                    28.78       0.00       0.00      19.27       7.34       0.02       7.35        0.05     0.02   0.255
  PB119B                    28.78       0.00       0.00      19.27       7.37       0.02       7.39        0.05     0.02   0.257
  PB120                     28.78       0.00       0.00      16.52       9.47       0.02       9.48        0.06     0.02   0.329
  PB121                     28.78       0.00       0.00      19.23       7.66       0.03       7.69        0.06     0.03   0.267
  PB122                     28.78       0.00       0.00      23.40       3.89       0.02       3.91        0.04     0.02   0.136
  PB123                     28.78       0.00       0.00      24.77       2.61       0.02       2.63        0.03     0.02   0.091
  PB124                     28.78       0.00       0.00      26.80       2.65       0.61       0.61        0.01     0.00   0.021
  PB125                     28.78       0.00       0.00      26.49       3.97       0.88       0.88        0.01     0.00   0.031
  PB126                     28.78       0.00       0.00      26.80       2.65       0.61       0.61        0.01     0.00   0.021
  PB127                     28.78       0.00       0.00      26.10       3.97       1.26       1.26        0.01     0.00   0.044
  PB128                     28.78       0.00       0.00      26.80       2.65       0.63       0.63        0.01     0.00   0.022
  PB129                     28.78       0.00       0.00      26.94       2.65       0.46       0.46        0.01     0.00   0.016
  PB130                     28.78       0.00       0.00      26.14       3.97       1.21       1.21        0.01     0.01   0.042
  PB131                     28.78       0.00       0.00      26.76       2.65       0.66       0.66        0.01     0.00   0.023
  PB132                     28.78       0.00       0.00      26.80       2.65       0.63       0.63        0.00     0.00   0.022
  PB133                     28.78       0.00       0.00      26.10       3.98       1.29       1.29        0.01     0.01   0.045
  PB134                     28.78       0.00       0.00      25.83       5.29       1.47       1.47        0.02     0.01   0.051
  PB135                     28.78       0.00       0.00      27.03       2.65       0.41       0.41        0.00     0.00   0.014
  PB136                     28.78       0.00       0.00      10.97      15.06       0.04      15.10        0.04     0.01   0.525
  PB137                     28.78       0.00       0.00      21.98       5.21       0.03       5.24        0.01     0.00   0.182
  PB138                     28.78       0.00       0.00      27.22       1.33       0.25       0.25        0.00     0.00   0.009
  PB139                     28.78       0.00       0.00      26.39       2.65       1.05       1.05        0.01     0.00   0.037
  PB140                     28.78       0.00       0.00      26.05       3.98       1.31       1.31        0.01     0.00   0.046
  PB141                     28.78       0.00       0.00      27.47       0.00       0.04       0.04        0.00     0.00   0.001
  PB142                     28.78       0.00       0.00      19.53      10.58       7.56       7.56        0.01     0.01   0.263
  PB143                     28.78       0.00       0.00      13.96      15.79      12.77      12.77        0.01     0.01   0.444
  PB144                     28.78       0.00       0.00      12.92      15.86      13.89      13.89        0.04     0.03   0.483
  PB145                     28.78       0.00       0.00      17.84      13.15       9.02       9.02        0.04     0.01   0.314
  PB146                     28.78       0.00       0.00      21.56      10.52       5.43       5.43        0.01     0.01   0.189
  PB147                     28.78       0.00       0.00      24.52       5.30       2.79       2.79        0.01     0.00   0.097
  PB148                     28.78       0.00       0.00      19.23       7.79       0.04       7.83        0.02     0.01   0.272
  PB149                     28.78       0.00       0.00       8.18      18.10       0.07      18.17        0.01     0.00   0.631
  PB150                     28.78       0.00       0.00      16.52       9.87       0.02       9.89        0.02     0.01   0.344
  PB151                     28.78       0.00       0.00      13.74      12.61       0.04      12.64        0.01     0.01   0.439
  PB152                     28.78       0.00       0.00      19.27       7.55       0.02       7.57        0.01     0.01   0.263
  PB153                     28.78       0.00       0.00       0.00      23.29       0.00      23.29        0.07     0.02   0.809
  PB154                     28.78       0.00       0.00      16.52       9.52       0.02       9.53        0.02     0.01   0.331
  PB155                     28.78       0.00       0.00      13.76      11.49       0.02      11.50        0.03     0.01   0.400
  PB156                     28.78       0.00       0.00      19.27       7.54       0.02       7.56        0.01     0.01   0.263
  PB157                     28.78       0.00       0.00      27.27       0.00       0.26       0.26        0.00     0.00   0.009
  PB158                     28.78       0.00       0.00       5.48      18.54       0.03      18.57        0.03     0.01   0.645
  PB159                     28.78       0.00       0.00      10.97      15.14       0.04      15.18        0.03     0.01   0.527
  PB160                     28.78       0.00       0.00       5.47      19.02       0.03      19.05        0.02     0.01   0.662
  PB161                     28.78       0.00       0.00      10.97      15.18       0.04      15.22        0.03     0.01   0.529
  PB162                     28.78       0.00       0.00      10.97      15.23       0.05      15.27        0.03     0.01   0.531
  PB163                     28.78       0.00       0.00       5.47      19.02       0.03      19.05        0.02     0.01   0.662
  PB164                     28.78       0.00       0.00       8.23      17.33       0.04      17.37        0.04     0.02   0.604
  PB165                     28.78       0.00       0.00      13.74      12.62       0.04      12.66        0.07     0.03   0.440
  PB166                     28.78       0.00       0.00      13.74      12.32       0.03      12.35        0.02     0.01   0.429
  PB167                     28.78       0.00       0.00       5.47      19.22       0.03      19.25        0.05     0.02   0.669
  PB168                     28.78       0.00       0.00      10.99      14.15       0.02      14.17        0.02     0.01   0.492
  PB169                     28.78       0.00       0.00       5.44      20.53       0.07      20.60        0.01     0.00   0.716
  PB170                     28.78       0.00       0.00       2.72      22.08       0.04      22.12        0.02     0.01   0.768
  PB171                     28.78       0.00       0.00       2.70      22.77       0.05      22.82        0.01     0.01   0.793
  PB172                     28.78       2.86       0.00      27.03       2.93       0.28       3.21        0.01     0.01   0.101
  PB173                     28.78       0.00       0.00       8.23      17.39       0.04      17.43        0.02     0.01   0.606
  PB174                     28.78       0.00       0.00       0.00      23.85       0.00      23.85        0.02     0.01   0.829
  PB175                     28.78       0.00       0.00       2.72      21.92       0.04      21.96        0.02     0.01   0.763
  PB176                     28.78       0.00       0.00      27.32       0.00       0.20       0.20        0.00     0.00   0.007
  PB177                     28.78       0.00       0.00      10.99      14.15       0.02      14.17        0.02     0.01   0.492
  PB178                     28.78       0.00       0.00      10.99      14.66       0.03      14.69        0.05     0.02   0.511
  PB179                     28.78       0.00       0.00      19.27       7.02       0.01       7.03        0.03     0.01   0.244
  PB180                     28.78       0.00       0.00      22.02       4.84       0.01       4.85        0.02     0.01   0.168
  PB181                     28.78       0.00       0.00      16.48      10.19       0.03      10.22        0.01     0.01   0.355
  PB182                     28.78       0.00       0.00      20.54      10.56       6.50       6.50        0.01     0.00   0.226
  PB183                     28.78       0.00       0.00      27.07       1.33       0.42       0.42        0.01     0.00   0.015
  PB184                     28.78       0.00       0.00      26.10       1.33       0.05       1.38        0.01     0.01   0.048
  PB185                     28.78       0.00       0.00      22.02       5.18       0.03       5.21        0.01     0.00   0.181
  PB186                     28.78       0.00       0.00      24.44       5.30       2.88       2.88        0.01     0.00   0.100
  PB187                     28.78       0.00       0.00      26.29       2.65       1.12       1.12        0.00     0.00   0.039
  PB188                     28.78       0.00       0.00      21.67       7.95       5.55       5.55        0.01     0.01   0.193
  PB189                     28.78       0.00       0.00      18.85      10.59       8.23       8.23        0.02     0.01   0.286
  PB190                     28.78       0.00       0.00      26.57       2.65       0.84       0.84        0.00     0.00   0.029
  PB191                     28.78       0.00       0.00       2.74      16.96       0.01      16.97        0.05     0.01   0.590
  PB192                     28.78       0.00       0.00      22.02       5.10       0.02       5.11        0.06     0.03   0.178
  PB193                     28.78       0.00       0.00       8.23      16.77       0.03      16.80        0.02     0.01   0.584
  PB194                     28.78       0.00       0.00       2.73      20.49       0.02      20.52        0.03     0.01   0.713
  PB195                     28.78       0.00       0.00      19.27       7.43       0.02       7.44        0.04     0.02   0.259
  PB196                     28.78       0.00       0.00      19.27       7.13       0.01       7.14        0.06     0.02   0.248
  PB197                     28.78       0.00       0.00      19.27       6.99       0.01       7.00        0.07     0.02   0.243
  PB198                     28.78       0.00       0.00      19.27       6.73       0.01       6.74        0.08     0.02   0.234
  PB199                     28.78       0.00       0.00      19.27       6.71       0.01       6.71        0.08     0.02   0.233
  PB200                     28.78       0.00       0.00      19.27       7.16       0.01       7.18        0.06     0.02   0.249
  PB201                     28.78       0.00       0.00      19.27       6.98       0.01       6.99        0.07     0.02   0.243
  PB202                     28.78       0.00       0.00      19.27       6.94       0.01       6.95        0.07     0.02   0.241
  PB203                     28.78       0.00       0.00      19.27       7.05       0.01       7.07        0.06     0.02   0.246
  PB204                     28.78       0.00       0.00      19.27       7.05       0.01       7.06        0.06     0.02   0.245
  PB205                     28.78       0.00       0.00      19.27       7.16       0.01       7.17        0.06     0.02   0.249
  PB206                     28.78       0.00       0.00      19.27       7.23       0.01       7.24        0.05     0.02   0.252
  PB207                     28.78       0.00       0.00      19.27       7.36       0.02       7.37        0.05     0.02   0.256
  PB208                     28.78       0.00       0.00      19.27       7.30       0.01       7.32        0.05     0.02   0.254
  PB209                     28.78       0.00       0.00      19.27       7.16       0.01       7.17        0.06     0.02   0.249
  PB210A                    28.78       0.00       0.00      19.27       7.15       0.01       7.16        0.06     0.02   0.249
  PB210B                    28.78       0.00       0.00      22.02       4.72       0.01       4.73        0.06     0.02   0.164
  PB211A                    28.78       0.00       0.00      19.27       7.47       0.02       7.49        0.04     0.02   0.260
  PB211B                    28.78       0.00       0.00      19.27       7.19       0.01       7.21        0.05     0.02   0.250
  PB211C                    28.78       0.00       0.00      20.61       6.48       0.03       6.51        0.02     0.01   0.226
  PB212A                    28.78       0.00       0.00      19.27       7.46       0.02       7.48        0.04     0.02   0.260
  PB212B                    28.78       0.00       0.00      19.27       7.56       0.02       7.59        0.03     0.01   0.264
  PB212C                    28.78       0.00       0.00      19.27       7.39       0.02       7.40        0.04     0.02   0.257
  PB213A                    28.78       0.00       0.00      19.27       7.21       0.01       7.23        0.05     0.02   0.251
  PB213B                    28.78       0.00       0.00      24.77       2.47       0.01       2.47        0.04     0.02   0.086
  PB214                     28.78       0.00       0.00      22.02       5.19       0.03       5.21        0.02     0.01   0.181
  PB215A                    28.78       0.00       0.00      22.71       7.94       4.47       4.47        0.04     0.02   0.155
  PB215B                    28.78       0.00       0.00      22.96       7.94       4.24       4.24        0.04     0.02   0.147
  PB216A                    28.78       0.00       0.00      25.09       5.30       2.23       2.23        0.01     0.01   0.078
  PB216B                    28.78       0.00       0.00      23.54       7.93       3.64       3.64        0.02     0.01   0.126
  PB217A                    28.78       0.00       0.00      24.60       6.61       2.63       2.63        0.02     0.01   0.091
  PB217B                    28.78       0.00       0.00      22.53       7.94       4.66       4.66        0.02     0.01   0.162
  PB217C                    28.78       0.00       0.00      22.85       7.94       4.35       4.35        0.06     0.03   0.151
  PB218                     28.78       0.00       0.00      24.73       5.30       2.60       2.60        0.01     0.00   0.090
  PB219                     28.78       0.00       0.00      24.22       7.90       2.94       2.94        0.03     0.01   0.102
  PB220                     28.78       0.00       0.00      24.89       5.30       2.42       2.42        0.01     0.01   0.084
  PB221                     28.78       0.00       0.00      26.06       2.65       1.36       1.36        0.00     0.00   0.047
  PB222                     28.78       0.00       0.00      25.26       5.30       2.07       2.07        0.02     0.01   0.072
  PB223                     28.78       0.00       0.00      26.94       2.65       0.50       0.50        0.00     0.00   0.018
  PB224                     28.78       0.00       0.00      26.06       2.65       1.36       1.36        0.00     0.00   0.047
  PB225                     28.78       0.00       0.00      25.91       5.28       1.36       1.36        0.01     0.01   0.047
  PB226                     28.78       0.00       0.00      25.93       2.65       1.51       1.51        0.00     0.00   0.052
  PB227                     28.78       0.00       0.00      22.10       7.95       5.10       5.10        0.02     0.01   0.177
  PB228                     28.78       0.00       0.00      23.25       7.93       3.95       3.95        0.02     0.01   0.137
  PB229                     28.78       0.00       0.00      25.83       5.29       1.45       1.45        0.01     0.01   0.050
  PB230A                    28.78       0.00       0.00      22.53       7.94       4.65       4.65        0.02     0.01   0.162
  PB230B                    28.78       0.00       0.00      22.96       7.94       4.24       4.24        0.02     0.01   0.147
  PB231                     28.78       0.00       0.00      23.54       7.92       3.62       3.62        0.02     0.01   0.126
  PB232A                    28.78       0.00       0.00      22.39       7.94       4.82       4.82        0.02     0.01   0.167
  PB232B                    28.78       0.00       0.00      25.14       5.30       2.19       2.19        0.01     0.01   0.076
  PB233                     28.78       0.00       0.00      27.53       0.00       0.02       0.02        0.00     0.00   0.001
  PB234                     28.78       0.00       0.00      14.60      15.73      12.08      12.08        0.02     0.01   0.420
  PB235                     28.78       0.00       0.00      14.88      15.70      11.78      11.78        0.02     0.01   0.409
  PB236                     28.78       0.00       0.00      20.97      10.54       6.05       6.05        0.01     0.00   0.210
  PB237                     28.78       0.00       0.00      22.39       7.94       4.80       4.80        0.02     0.01   0.167
  PB238                     28.78       0.00       0.00      26.71       2.65       0.73       0.73        0.00     0.00   0.025
  PB239                     28.78       0.00       0.00      25.31       3.98       2.07       2.07        0.00     0.00   0.072
  PB240                     28.78       0.00       0.00      25.09       3.98       2.29       2.29        0.00     0.00   0.080
  PB241                     28.78       0.00       0.00      25.09       3.98       2.27       2.27        0.00     0.00   0.079
  PB242                     28.78       0.00       0.00      25.22       5.30       2.08       2.08        0.00     0.00   0.072
  PB243                     28.78       0.00       0.00      24.11       5.30       3.22       3.22        0.00     0.00   0.112
  PB244                     28.78       0.00       0.00      24.85       5.30       2.48       2.48        0.00     0.00   0.086
  PB245                     28.78       0.00       0.00      25.42       5.30       1.90       1.90        0.01     0.01   0.066
  PB246                     28.78       0.00       0.00      26.29       2.65       1.13       1.13        0.00     0.00   0.039
  PB247                     28.78       0.00       0.00      25.75       3.98       1.62       1.62        0.01     0.01   0.056
  PB248                     28.78       0.00       0.00      24.89       5.30       2.42       2.42        0.02     0.01   0.084
  PB249                     28.78       0.00       0.00      24.88       3.98       2.50       2.50        0.01     0.00   0.087
  PB250                     28.78       0.00       0.00      25.23       3.98       2.16       2.16        0.00     0.00   0.075
  PB251                     28.78       0.00       0.00      26.16       5.28       1.10       1.10        0.01     0.00   0.038
  PB252                     28.78       0.00       0.00      19.27       7.59       0.02       7.62        0.03     0.01   0.265
  PB253                     28.78       0.00       0.00      23.86       5.31       3.48       3.48        0.01     0.01   0.121
  PB254                     28.78       0.00       0.00       0.00      25.67       0.00      25.67        0.01     0.00   0.892
  PB255                     28.78       0.00       0.00      13.71      12.79       0.04      12.84        0.01     0.01   0.446
  PB256                     28.78       0.00       0.00      25.88       3.98       1.50       1.50        0.01     0.01   0.052
  PB257                     28.78       0.00       0.00      20.22      10.16       0.72       0.72        0.02     0.00   0.025
  PB258                     28.78       0.17       0.00      27.53       0.00       0.20       0.20        0.01     0.01   0.007
  VV1                       28.78      38.94       0.00       0.00      65.26       0.00      65.26        0.05     0.02   0.964
  VV2                       28.78       0.00       0.00       0.00      27.16       0.00      27.16        0.01     0.01   0.944
  VV3                       28.78       0.00       0.00       0.00      27.06       0.00      27.06        0.04     0.03   0.940
  VV4                       28.78       0.00       0.00       0.00      27.14       0.00      27.14        0.01     0.01   0.943
  VV5                       28.78       0.00       0.00       0.00      27.09       0.00      27.09        0.02     0.02   0.941
  VV6                       28.78       0.00       0.00       0.00      27.14       0.00      27.14        0.01     0.01   0.943
  VV7                       28.78       0.00       0.00       0.00      27.24       0.00      27.24        0.01     0.01   0.947
  VV8                       28.78      13.85       0.00       0.00      40.82       0.00      40.82        0.02     0.02   0.957
  VV9                       28.78       0.00       0.00       0.00      27.03       0.00      27.03        0.02     0.02   0.939
  VV10                      28.78       0.65       0.00       0.00      27.81       0.00      27.81        0.03     0.03   0.945
  VV11                      28.78       0.00       0.00       0.00      26.34       0.00      26.34        0.02     0.01   0.915
  VV12                      28.78       1.52       0.00       0.00      28.26       0.00      28.26        0.08     0.04   0.933
  VV13                      28.78       0.00       0.00       0.00      27.16       0.00      27.16        0.01     0.01   0.944
  VV14                      28.78       0.00       0.00       0.00      26.94       0.00      26.94        0.02     0.01   0.936
  VV15                      28.78       0.00       0.00       0.00      26.97       0.00      26.97        0.02     0.01   0.937
  VV16                      28.78       0.00       0.00       0.00      27.25       0.00      27.25        0.00     0.00   0.947
  VV17                      28.78       0.00       0.00       0.00      27.24       0.00      27.24        0.01     0.01   0.946
  VV18                      28.78      16.10       0.00       0.00      42.77       0.00      42.77        0.05     0.03   0.953
  VV19                      28.78       0.00       0.00       0.00      27.25       0.00      27.25        0.01     0.01   0.947
  VV20                      28.78       0.00       0.00       0.00      27.18       0.00      27.18        0.03     0.03   0.945
  VV21                      28.78       0.00       0.00       0.00      27.02       0.00      27.02        0.02     0.02   0.939
  VV22                      28.78       0.00       0.00       0.00      27.14       0.00      27.14        0.01     0.01   0.943
  VV23                      28.78      26.42       0.00       0.00      52.99       0.00      52.99        0.03     0.02   0.960
  VV24                      28.78       0.00       0.00       0.00      27.09       0.00      27.09        0.02     0.01   0.941
  VV25                      28.78      16.25       0.00       0.00      42.72       0.00      42.72        0.06     0.04   0.949
  VV26                      28.78       0.00       0.00       0.00      27.05       0.00      27.05        0.02     0.01   0.940
  VV27                      28.78       0.00       0.00       0.00      27.27       0.00      27.27        0.00     0.00   0.948
  VV28                      28.78       0.00       0.00       0.00      27.11       0.00      27.11        0.04     0.03   0.942
  VV29                      28.78       0.00       0.00       0.00      27.27       0.00      27.27        0.00     0.00   0.948
  VV30                      28.78       7.86       0.00       0.00      34.67       0.00      34.67        0.05     0.03   0.946
  VV31                      28.78       0.00       0.00       0.00      26.55       0.00      26.55        0.03     0.01   0.922
  VV32                      28.78       0.00       0.00       0.00      26.70       0.00      26.70        0.05     0.03   0.928
  VV33                      28.78       8.90       0.00       0.00      35.89       0.00      35.89        0.06     0.04   0.953
  VV34                      28.78      10.46       0.00      36.03       0.00       1.95       1.95        0.01     0.00   0.050
  VV35                      28.78       6.38       0.00      32.85       0.00       1.08       1.08        0.01     0.00   0.031
  VV36                      28.78       0.00       0.00      26.19       0.00       1.37       1.37        0.00     0.00   0.048
  VV37                      28.78       0.00       0.00      27.12       0.00       0.42       0.42        0.00     0.00   0.015
  VV38                      28.78       4.65       0.00      30.96       0.00       1.20       1.20        0.00     0.00   0.036
  VV39                      28.78       1.83       0.00       0.00      28.75       0.00      28.75        0.06     0.04   0.939
  VV40                      28.78       4.43       0.00       0.00      31.37       0.00      31.37        0.06     0.04   0.945
  VV41                      28.78       0.00       0.00       0.00      27.00       0.00      27.00        0.02     0.01   0.938
  VV42                      28.78       1.33       0.00       0.00      27.96       0.00      27.96        0.09     0.05   0.929
  VV43                      28.78       0.00       0.00       0.00      27.12       0.00      27.12        0.03     0.03   0.942
  VV44                      28.78       0.00       0.00       0.00      24.89       0.00      24.89        0.09     0.03   0.865
  VV45                      28.78       0.00       0.00       0.00      26.52       0.00      26.52        0.09     0.05   0.921
  VV46                      28.78       0.00       0.00       0.00      27.02       0.00      27.02        0.03     0.02   0.939
  VV47                      28.78       0.00       0.00       0.00      26.55       0.00      26.55        0.11     0.06   0.922
  VV48                      28.78       0.00       0.00       0.00      26.50       0.00      26.50        0.04     0.02   0.921
  VV49                      28.78      14.96       0.00       0.00      41.90       0.00      41.90        0.05     0.02   0.958
  VV50                      28.78       0.00       0.00      26.55       0.00       1.01       1.01        0.00     0.00   0.035
  VV51                      28.78      16.27       0.00      30.75       0.00      13.07      13.07        0.00     0.00   0.290
  VV52                      28.78      14.08       0.00      28.09       0.00      13.52      13.52        0.00     0.00   0.315
  VV53                      28.78       0.00       0.00      25.89       0.00       1.64       1.64        0.00     0.00   0.057
  VB1                       28.78       0.00       0.00       0.00      26.95       0.00      26.95        0.01     0.01   0.937
  VB2                       28.78       0.00       0.00       0.00      27.20       0.00      27.20        0.03     0.03   0.945
  VB3                       28.78       0.00       0.00       0.00      27.19       0.00      27.19        0.01     0.01   0.945
  VB4                       28.78       0.00       0.00       0.00      27.08       0.00      27.08        0.02     0.02   0.941
  VB5                       28.78       0.94       0.00       0.00      27.47       0.00      27.47        0.07     0.03   0.924
  VB6                       28.78       0.00       0.00       0.00      26.81       0.00      26.81        0.02     0.01   0.931
  VB7                       28.78       0.00       0.00       0.00      27.12       0.00      27.12        0.01     0.01   0.942
  VB8                       28.78       0.00       0.00       0.00      27.09       0.00      27.09        0.01     0.01   0.941
  VB9                       28.78       0.00       0.00       0.00      27.13       0.00      27.13        0.04     0.03   0.943
  VB10                      28.78       0.00       0.00       0.00      27.01       0.00      27.01        0.02     0.02   0.938
  VB11                      28.78       0.00       0.00       0.00      26.84       0.00      26.84        0.03     0.02   0.932
  VB12                      28.78       0.00       0.00       0.00      26.93       0.00      26.93        0.02     0.01   0.936
  VB13                      28.78       0.00       0.00       0.00      27.19       0.00      27.19        0.01     0.01   0.945
  VB14                      28.78       0.00       0.00       0.00      27.00       0.00      27.00        0.03     0.02   0.938
  VB15                      28.78       0.00       0.00       0.00      27.10       0.00      27.10        0.02     0.02   0.942
  VB16                      28.78       0.00       0.00       0.00      27.11       0.00      27.11        0.05     0.04   0.942
  VB17                      28.78       0.00       0.00       0.00      26.97       0.00      26.97        0.05     0.04   0.937
  VB18                      28.78       3.11       0.00       0.00      29.59       0.00      29.59        0.07     0.03   0.928
  VB19                      28.78       0.00       0.00       0.00      26.99       0.00      26.99        0.06     0.04   0.938
  VB20                      28.78      56.42       0.00       0.00      82.69       0.00      82.69        0.07     0.02   0.970
  VB21                      28.78       0.00       0.00       0.00      27.05       0.00      27.05        0.02     0.01   0.940
  VB22                      28.78       0.00       0.00       0.00      27.13       0.00      27.13        0.02     0.01   0.942
  VB23                      28.78       0.00       0.00       0.00      27.22       0.00      27.22        0.01     0.01   0.946
  VB24                      28.78       0.00       0.00       0.00      27.24       0.00      27.24        0.01     0.01   0.946
  VB25                      28.78       0.00       0.00       0.00      27.17       0.00      27.17        0.03     0.03   0.944
  VB26                      28.78       0.00       0.00       0.00      27.15       0.00      27.15        0.01     0.01   0.943
  VB27                      28.78       0.11       0.00       0.00      27.20       0.00      27.20        0.04     0.03   0.942
  VB28                      28.78       0.00       0.00       0.00      27.15       0.00      27.15        0.01     0.01   0.943
  VB29                      28.78       0.00       0.00       0.00      27.20       0.00      27.20        0.01     0.01   0.945
  VB30                      28.78       0.00       0.00       0.00      26.66       0.00      26.66        0.02     0.01   0.926
  VB31                      28.78       0.00       0.00       0.00      27.12       0.00      27.12        0.02     0.02   0.942
  VB32                      28.78       0.00       0.00       0.00      26.83       0.00      26.83        0.02     0.01   0.932
  VB33                      28.78       0.00       0.00       0.00      27.04       0.00      27.04        0.02     0.02   0.939
  VB34                      28.78       0.00       0.00       0.00      26.92       0.00      26.92        0.03     0.02   0.935
  VB35                      28.78       0.00       0.00       0.00      26.61       0.00      26.61        0.02     0.01   0.924
  VB36                      28.78       0.00       0.00       0.00      27.07       0.00      27.07        0.02     0.02   0.941
  VB37                      28.78       0.00       0.00       0.00      27.11       0.00      27.11        0.02     0.02   0.942
  VB38                      28.78       0.00       0.00       0.00      27.01       0.00      27.01        0.02     0.02   0.938
  VB39                      28.78       0.00       0.00       0.00      27.27       0.00      27.27        0.00     0.00   0.948
  VB40                      28.78       0.00       0.00       0.00      27.19       0.00      27.19        0.01     0.01   0.945
  VB41                      28.78       0.00       0.00       0.00      27.24       0.00      27.24        0.01     0.01   0.946
  VB42                      28.78       0.00       0.00       0.00      27.25       0.00      27.25        0.00     0.01   0.947
  VB43                      28.78       0.00       0.00       0.00      27.22       0.00      27.22        0.01     0.01   0.946
  VB44                      28.78       0.00       0.00       0.00      26.94       0.00      26.94        0.01     0.01   0.936
  VB45                      28.78       0.00       0.00       0.00      27.26       0.00      27.26        0.01     0.01   0.947
  VB46                      28.78       0.00       0.00       0.00      26.77       0.00      26.77        0.03     0.02   0.930
  VB47                      28.78       0.00       0.00       0.00      26.75       0.00      26.75        0.04     0.02   0.929
  VB48                      28.78       0.00       0.00       0.00      26.71       0.00      26.71        0.04     0.02   0.928
  VB49                      28.78       0.00       0.00       0.00      26.98       0.00      26.98        0.01     0.01   0.937
  VB50                      28.78      30.56       0.00       0.00      57.70       0.00      57.70        0.06     0.03   0.972
  VB51                      28.78       0.00       0.00       0.00      27.16       0.00      27.16        0.01     0.01   0.944
  VB52                      28.78      10.67       0.00      33.72       0.00       4.51       4.51        0.01     0.00   0.114
  VB53                      28.78      19.65       0.00      40.44       0.00       5.09       5.09        0.02     0.00   0.105
  VB54                      28.78       0.00       0.00       0.00      26.56       0.00      26.56        0.03     0.01   0.923
  VB55                      28.78      22.92       0.00       0.00      49.58       0.00      49.58        0.09     0.03   0.959
  VB56                      28.78       3.12       0.00       0.00      29.69       0.00      29.69        0.07     0.03   0.931
  VB57                      28.78       0.00       0.00       0.00      24.03       0.00      24.03        0.13     0.04   0.835
  VB58                      28.78      73.13       0.00       0.00      99.92       0.00      99.92        0.04     0.01   0.980
  VB59                      28.78       0.00       0.00       0.00      27.19       0.00      27.19        0.01     0.01   0.945
  VB60                      28.78       0.00       0.00       0.00      27.15       0.00      27.15        0.03     0.03   0.943
  VB61                      28.78       0.00       0.00       0.00      27.13       0.00      27.13        0.01     0.01   0.943
  VB62                      28.78      20.61       0.00       0.00      47.42       0.00      47.42        0.05     0.02   0.960
  VB63                      28.78       0.00       0.00       0.00      27.15       0.00      27.15        0.02     0.01   0.943
  VB64                      28.78       0.00       0.00       0.00      27.19       0.00      27.19        0.03     0.03   0.945
  VB65                      28.78       0.00       0.00       0.00      27.13       0.00      27.13        0.01     0.01   0.943
  VB66                      28.78       0.00       0.00       0.00      26.53       0.00      26.53        0.03     0.01   0.922
  VB67                      28.78       0.00       0.00       0.00      26.86       0.00      26.86        0.02     0.01   0.933
  VB68                      28.78       0.00       0.00       0.00      27.05       0.00      27.05        0.02     0.02   0.940
  VB69                      28.78       0.00       0.00       0.00      27.09       0.00      27.09        0.04     0.04   0.941
  VB70                      28.78       0.00       0.00       0.00      27.14       0.00      27.14        0.04     0.04   0.943
  VB71                      28.78       0.00       0.00       0.00      27.18       0.00      27.18        0.01     0.01   0.945
  VB72                      28.78      10.97       0.00       0.00      37.24       0.00      37.24        0.08     0.04   0.937
  VB73                      28.78       0.00       0.00       0.00      27.03       0.00      27.03        0.02     0.02   0.939
  VB74                      28.78       0.00       0.00       0.00      26.90       0.00      26.90        0.04     0.03   0.935
  VB75                      28.78       0.00       0.00       0.00      27.12       0.00      27.12        0.01     0.01   0.942
  VB76                      28.78       0.00       0.00       0.00      26.95       0.00      26.95        0.01     0.01   0.936
  VB77                      28.78       0.00       0.00       0.00      27.18       0.00      27.18        0.01     0.01   0.944
  VB78                      28.78       0.00       0.00       0.00      27.06       0.00      27.06        0.02     0.01   0.940
  VB79                      28.78       0.00       0.00       0.00      27.24       0.00      27.24        0.01     0.01   0.946
  VB80                      28.78       0.00       0.00       0.00      26.67       0.00      26.67        0.02     0.01   0.927
  VB81                      28.78       0.00       0.00       0.00      27.21       0.00      27.21        0.01     0.01   0.946
  VB82                      28.78       0.00       0.00       0.00      27.22       0.00      27.22        0.01     0.01   0.946
  VB83                      28.78       0.00       0.00       0.00      27.14       0.00      27.14        0.01     0.01   0.943
  VB84                      28.78       0.00       0.00       0.00      27.22       0.00      27.22        0.01     0.01   0.946
  VB85                      28.78       0.00       0.00       0.00      27.20       0.00      27.20        0.01     0.01   0.945
  VB86                      28.78       0.00       0.00       0.00      26.78       0.00      26.78        0.01     0.01   0.931
  VB87                      28.78       0.00       0.00       0.00      27.01       0.00      27.01        0.01     0.01   0.938
  VB88                      28.78       0.00       0.00       0.00      25.24       0.00      25.24        0.05     0.02   0.877
  VB89                      28.78       0.00       0.00       0.00      26.61       0.00      26.61        0.02     0.01   0.925
  VB90                      28.78      73.66       0.00       0.00      99.64       0.00      99.64        0.04     0.01   0.973
  VB91                      28.78       0.00       0.00       0.00      27.17       0.00      27.17        0.03     0.03   0.944
  VB92                      28.78       0.00       0.00       0.00      27.05       0.00      27.05        0.02     0.01   0.940
  VB93                      28.78       0.00       0.00       0.00      27.07       0.00      27.07        0.02     0.01   0.941
  VB94                      28.78       0.00       0.00       0.00      27.05       0.00      27.05        0.05     0.04   0.940
  VB95                      28.78      17.17       0.00       0.00      44.18       0.00      44.18        0.07     0.05   0.962
  VB96                      28.78       0.00       0.00       0.00      27.09       0.00      27.09        0.01     0.01   0.941
  VB97                      28.78       0.00       0.00       0.00      27.23       0.00      27.23        0.01     0.01   0.946
  VB98                      28.78       0.00       0.00       0.00      27.05       0.00      27.05        0.02     0.02   0.940
  VB99                      28.78       0.00       0.00       0.00      27.12       0.00      27.12        0.03     0.03   0.942
  VB100                     28.78       0.00       0.00       0.00      27.05       0.00      27.05        0.04     0.03   0.940
  VB101                     28.78       0.00       0.00       0.00      27.05       0.00      27.05        0.02     0.02   0.940
  VB102                     28.78       0.00       0.00       0.00      26.79       0.00      26.79        0.02     0.01   0.931
  VB103                     28.78       0.00       0.00       0.00      26.98       0.00      26.98        0.01     0.01   0.938
  VB104                     28.78       0.00       0.00       0.00      27.05       0.00      27.05        0.02     0.02   0.940
  VB105                     28.78       0.00       0.00       0.00      27.00       0.00      27.00        0.02     0.02   0.938
  VB106                     28.78       0.00       0.00       0.00      27.07       0.00      27.07        0.02     0.02   0.940
  VB107                     28.78       0.00       0.00       0.00      26.76       0.00      26.76        0.02     0.01   0.930
  VB108                     28.78       0.00       0.00       0.00      26.74       0.00      26.74        0.02     0.01   0.929
  VB109                     28.78       0.00       0.00       0.00      27.08       0.00      27.08        0.02     0.02   0.941
  VB110                     28.78       0.00       0.00       0.00      26.91       0.00      26.91        0.02     0.01   0.935
  VB111                     28.78       0.00       0.00       0.00      26.95       0.00      26.95        0.01     0.01   0.936
  VB112                     28.78       0.00       0.00       0.00      27.18       0.00      27.18        0.01     0.01   0.944
  VB113                     28.78       0.00       0.00       0.00      27.07       0.00      27.07        0.02     0.02   0.941
  VB114                     28.78       0.00       0.00       0.00      27.00       0.00      27.00        0.01     0.01   0.938
  VB115                     28.78       0.00       0.00       0.00      26.94       0.00      26.94        0.02     0.01   0.936
  VB116                     28.78       0.00       0.00       0.00      26.58       0.00      26.58        0.02     0.01   0.924
  VB117                     28.78       0.00       0.00       0.00      27.16       0.00      27.16        0.01     0.01   0.944
  VB118                     28.78       0.00       0.00       0.00      26.31       0.00      26.31        0.02     0.01   0.914
  VB119                     28.78       0.00       0.00       0.00      26.46       0.00      26.46        0.03     0.01   0.919
  VB120                     28.78       0.00       0.00       0.00      25.77       0.00      25.77        0.09     0.03   0.895
  VB121                     28.78       0.00       0.00       0.00      25.86       0.00      25.86        0.08     0.03   0.898
  VB122                     28.78       0.00       0.00       0.00      26.20       0.00      26.20        0.07     0.03   0.910
  VB123                     28.78       0.00       0.00       0.00      25.65       0.00      25.65        0.09     0.04   0.891
  VB124                     28.78       0.00       0.00       0.00      25.70       0.00      25.70        0.06     0.02   0.893
  VB125                     28.78       0.00       0.00       0.00      26.49       0.00      26.49        0.05     0.02   0.921
  VB126                     28.78       0.00       0.00       0.00      26.72       0.00      26.72        0.04     0.02   0.928
  VB127                     28.78       0.00       0.00       0.00      27.12       0.00      27.12        0.01     0.01   0.942
  VB128                     28.78       0.00       0.00       0.00      27.15       0.00      27.15        0.03     0.03   0.943
  VB129                     28.78       0.00       0.00       0.00      26.93       0.00      26.93        0.02     0.01   0.936
  VB130                     28.78       0.00       0.00       0.00      26.84       0.00      26.84        0.03     0.02   0.933
  VB131                     28.78       0.00       0.00       0.00      27.06       0.00      27.06        0.04     0.03   0.940
  VB132                     28.78       0.00       0.00       0.00      26.98       0.00      26.98        0.05     0.03   0.937
  VB133                     28.78       0.00       0.00       0.00      27.03       0.00      27.03        0.02     0.01   0.939
  VB134                     28.78       0.00       0.00       0.00      27.05       0.00      27.05        0.02     0.02   0.940
  VB135                     28.78       0.00       0.00      19.72       6.82       0.95       7.76        0.01     0.01   0.270
  VB136                     28.78       0.00       0.00       0.00      27.19       0.00      27.19        0.03     0.03   0.945
  VB137                     28.78       0.00       0.00       0.00      27.17       0.00      27.17        0.01     0.01   0.944
  VB138                     28.78       0.00       0.00       0.00      27.20       0.00      27.20        0.03     0.03   0.945
  VB139                     28.78       0.00       0.00       0.00      27.23       0.00      27.23        0.01     0.01   0.946
  VB140                     28.78       0.00       0.00       0.00      25.65       0.00      25.65        0.06     0.03   0.891
  VB141                     28.78       0.00       0.00       0.00      27.03       0.00      27.03        0.02     0.02   0.939
  VB142                     28.78       0.00       0.00       0.00      26.99       0.00      26.99        0.05     0.03   0.938
  VB143                     28.78       0.00       0.00       0.00      27.14       0.00      27.14        0.03     0.03   0.943
  VB144                     28.78       0.00       0.00       0.00      26.84       0.00      26.84        0.03     0.02   0.932
  VB145                     28.78       0.00       0.00       0.00      27.19       0.00      27.19        0.01     0.01   0.945
  VB146                     28.78       0.00       0.00       0.00      27.07       0.00      27.07        0.04     0.03   0.941
[...]
  246703                      5.87      5.93      5.87      5.94         5.86
  552582                      0.01      0.01      5.82      0.01         0.01
  20                          5.96      5.97      5.96      5.97         5.96
  271871                      5.96      5.99      5.96      5.97         5.96
  526479                      0.01      5.97      0.01      5.97         0.01
  524593                      0.01      0.01      0.01      0.01         0.01
  524589                      0.01      0.01      0.01      0.01         0.01
  23                          0.01      0.01      0.01      0.01         0.01
  524591                      0.01      0.01      0.01      0.01         0.01
  2453                        0.01      5.95      0.01      5.95         0.01
  24                          0.01      0.01      0.01      5.95         0.01
  25                          5.90      5.90      5.99      0.06         0.01
  4631                        5.98      5.99      5.98      5.99         5.98
  114673                      0.01      0.01      5.90      0.01         0.01
  250603                      5.97      5.97      5.97      5.97         5.97
  273509                      5.96      5.97      5.96      5.96         5.96
  110196                      5.96      5.97      5.96      5.96         5.96
  153970                      5.99      5.99      5.99      0.42         0.42
  47716                       6.00      6.00      6.00      0.01         0.01
  5378                        6.00      6.00      6.00      6.00         6.00
  208856                      5.99      5.99      5.99      0.01         0.01
  91328                       3.56      5.99      3.56      5.99         3.56
  181291                      5.99      6.00      5.99      0.01         0.01
  176574                      6.00      6.00      6.00      5.64         5.63
  268514                      6.00      6.00      6.00      0.01         0.01
  98993                       5.99      5.99      6.00      0.01         0.01
  3904                        5.99      5.99      6.00      0.01         0.01
  193201                      6.00      6.00      6.00      0.01         0.01
  156015                      0.01      0.01      5.97      0.01         0.01
  29                          5.96      5.97      5.96      5.98         5.96
  238284                      0.01      0.01      5.98      5.98         0.01
  524592                      0.01      0.01      0.01      0.01         0.01
  552596                      5.91      5.92      5.91      0.01         0.06
  239582                      5.83      5.83      5.84      0.01         0.01
  517010                      0.01      0.01      0.01      5.85         0.01
  31                          5.99      6.00      5.99      6.00         5.99
  35                          0.01      0.01      3.82      0.01         0.01
  36                          5.98      5.98      6.00      0.01         0.01
  37                          6.00      6.00      6.00      6.00         6.00
  38                          5.99      6.00      5.99      0.01         0.01
  39                          5.99      5.99      5.99      5.99         5.99
  40                          5.99      5.99      5.99      5.99         5.99
  41                          5.99      5.99      6.00      0.01         0.01
  42                          5.99      6.00      5.99      6.00         5.99
  43                          5.99      5.99      5.99      5.99         5.99
  44                          5.99      5.99      5.99      5.99         5.99
  45                          5.99      5.99      5.99      0.01         0.01
  46                          5.99      5.99      5.99      0.01         0.01
  47                          5.99      5.99      6.00      0.01         0.01
  48                          6.00      6.00      6.00      6.00         6.00
  49                          5.99      6.00      5.99      0.01         0.01
  50                          5.99      5.99      5.99      5.99         5.99
  51                          5.99      5.99      5.99      0.01         0.01
  52                          5.99      5.99      5.99      0.01         0.01
  53                          5.98      5.99      5.98      5.98         5.98
  54                          5.98      5.98      5.98      0.01         0.01
  55                          5.98      5.98      5.98      0.01         0.01
  56                          5.98      5.98      5.98      0.01         0.01
  57                          5.98      5.98      5.98      0.01         0.01
  58                          5.98      5.98      5.98      5.97         5.98
  59                          5.98      5.98      5.99      0.01         0.01
  60                          5.99      5.99      5.99      5.97         5.98
  61                          5.99      5.99      5.99      0.01         0.01
  62                          5.99      5.99      5.99      0.01         0.01
  63                          5.99      5.99      5.99      5.99         5.98
  64                          5.98      5.99      5.98      5.99         5.97
  65                          5.98      5.98      5.98      0.01         0.01
  66                          5.98      5.98      5.98      5.76         4.71
  67                          0.01      0.01      5.98      0.01         0.01
  68                          5.98      5.98      5.98      5.98         5.98
  69                          5.98      5.98      5.98      5.98         5.97
  70                          0.01      5.98      0.01      5.98         0.01
  71                          0.01      0.01      0.01      3.55         0.01
  76                          0.01      0.01      5.97      0.01         0.01
  77                          5.97      5.97      5.99      0.01         0.01
  78                          5.99      5.99      5.99      0.01         0.01
  79                          5.99      5.99      5.99      5.98         5.98
  80                          5.99      5.99      5.99      0.01         0.01
  81                          5.99      5.99      5.99      5.99         5.99
  82                          5.99      5.99      5.99      0.01         0.01
  83                          5.99      5.99      5.99      5.98         5.99
  84                          5.99      5.99      6.00      0.01         0.01
  85                          5.99      6.00      5.99      6.00         5.99
  86                          5.99      5.99      5.99      5.99         5.99
  87                          5.99      5.99      5.99      5.99         5.99
  88                          5.99      5.99      5.99      5.99         5.99
  89                          5.97      5.99      5.97      5.99         5.97
  90                          5.97      5.97      5.98      0.01         0.01
  91                          5.98      5.98      5.98      0.01         0.01
  92                          5.98      5.98      5.98      0.01         0.01
  93                          5.98      5.98      5.98      0.01         0.01
  94                          5.98      5.98      5.99      0.31         0.32
  95                          5.99      5.99      5.99      5.99         5.99
  96                          0.01      5.99      0.01      5.99         0.01
  99                          0.01      0.01      5.98      0.01         0.01
  100                         5.98      5.98      5.99      0.01         0.01
  104                         0.01      0.01      5.99      0.01         0.01
  105                         5.99      5.99      5.99      0.01         0.01
  106                         5.99      5.99      5.99      5.99         5.99
  107                         5.99      5.99      5.99      5.71         5.71
  108                         5.98      5.99      5.98      5.99         5.98
  109                         5.98      5.98      5.98      5.98         5.98
  110                         5.98      5.98      5.98      5.98         5.98
  111                         5.98      5.98      5.98      5.98         5.98
  112                         5.98      5.98      5.98      0.01         0.01
  113                         5.98      5.98      5.99      0.01         0.01
  114                         5.99      5.99      5.99      0.01         0.01
  115                         5.99      5.99      5.99      5.99         5.99
  116                         5.99      5.99      5.99      5.99         5.99
  117                         5.99      5.99      5.99      5.99         5.99
  118                         0.01      5.99      0.01      5.99         0.01
  121                         0.01      0.01      0.14      0.01         0.01
  122                         0.14      0.14      5.96      0.01         0.01
  123                         5.96      5.96      5.97      0.16         0.20
  124                         5.97      5.97      5.97      0.01         0.01
  125                         5.97      5.97      5.97      5.98         5.97
  126                         5.96      5.97      5.96      0.01         0.01
  127                         5.96      5.96      5.96      0.01         0.01
  128                         5.96      5.96      5.98      0.01         0.01
  129                         5.98      5.98      5.98      5.96         5.96
  130                         5.98      5.98      5.98      0.09         0.08
  131                         5.98      5.98      5.98      5.97         5.98
  132                         5.98      5.98      5.98      5.98         5.98
  133                         5.98      5.98      5.98      5.98         5.98
  134                         5.98      5.98      5.99      0.01         0.01
  135                         5.98      5.99      5.98      5.99         5.98
  136                         5.97      5.98      5.97      5.74         5.71
  137                         5.97      5.97      5.97      5.98         5.97
  138                         5.97      5.97      5.97      5.97         5.97
  139                         0.01      5.97      0.01      5.97         0.01
  141                         0.01      0.01      5.98      0.01         0.01
  142                         6.00      6.00      6.00      6.00         6.00
  143                         5.99      6.00      5.99      0.01         0.01
  144                         5.99      5.99      5.99      0.01         0.01
  145                         5.99      5.99      5.99      0.01         0.01
  146                         5.98      5.99      5.98      0.46         0.47
  147                         5.98      5.98      5.98      0.01         0.01
  148                         5.98      5.98      5.98      0.01         0.01
  149                         5.98      5.98      5.98      0.01         0.01
  150                         5.98      5.98      5.98      0.01         0.01
  151                         5.98      5.98      5.98      0.01         0.01
  152                         5.98      5.98      5.98      5.98         5.98
  153                         5.98      5.98      5.99      5.98         5.98
  154                         5.99      5.99      6.00      0.01         0.01
  155                         6.00      6.00      6.00      6.00         6.00
  156                         5.99      6.00      5.99      0.01         0.01
  157                         5.99      5.99      5.99      5.99         5.66
  158                         5.99      5.99      5.99      5.99         5.99
  159                         5.99      5.99      5.99      0.01         0.01
  160                         5.99      5.99      5.99      5.99         5.98
  161                         5.99      5.99      5.99      5.98         5.99
  162                         5.99      5.99      6.00      0.58         0.96
  163                         0.01      6.00      0.01      6.00         0.01
  166                         0.01      0.01      5.96      0.01         0.01
  167                         5.96      5.96      5.96      0.01         0.01
  168                         5.96      5.96      5.96      5.96         5.96
  169                         5.96      5.96      5.96      0.01         0.01
  170                         5.96      5.96      5.97      5.96         5.96
  171                         5.97      5.97      5.97      0.01         0.01
  172                         5.97      5.97      5.97      0.01         0.01
  173                         5.97      5.97      5.97      5.97         5.97
  174                         5.97      5.97      5.97      0.01         0.01
  175                         5.97      5.97      5.97      5.97         5.97
  176                         5.97      5.97      5.97      0.01         0.01
  177                         5.96      5.97      5.96      0.01         0.01
  178                         5.96      5.96      5.97      0.01         0.01
  179                         5.96      5.97      5.96      5.98         5.96
  180                         5.96      5.96      5.96      0.01         0.01
  181                         5.96      5.96      5.96      5.84         5.83
  182                         5.96      5.96      5.96      5.96         5.96
  183                         5.96      5.96      5.96      5.96         5.96
  184                         5.96      5.96      5.97      5.96         5.96
  185                         5.95      5.97      5.95      5.97         5.95
  186                         3.42      5.95      3.42      5.96         3.42
  187                         3.42      3.42      3.43      0.47         0.37
  188                         0.01      3.43      0.01      5.96         0.01
  189                         0.88      0.88      1.14      0.27         0.25
  190                         1.14      1.14      3.44      0.01         0.01
  191                         3.44      3.44      5.99      0.01         0.01
  192                         5.99      5.99      5.99      0.01         0.01
  193                         3.41      5.99      3.41      5.99         3.41
  194                         3.41      3.41      5.95      0.01         0.01
  195                         5.95      5.95      5.96      5.97         5.95
  196                         3.42      5.96      3.42      5.97         3.42
  197                         3.42      3.42      3.43      5.94         3.38
  198                         3.43      3.43      5.96      0.78         0.76
  199                         5.96      5.96      5.97      0.01         0.01
  201                         0.01      0.01      0.17      0.01         0.01
  202                         0.17      0.17      5.98      0.01         0.01
  203                         5.98      5.98      5.98      0.01         0.01
  204                         6.00      6.00      6.00      0.02         0.01
  205                         5.99      6.00      5.99      0.02         0.01
  206                         5.99      6.00      5.99      6.00         5.99
  207                         6.00      6.00      6.00      0.01         0.01
  208                         5.99      6.00      5.99      6.00         5.99
  209                         6.00      6.00      6.00      0.01         0.01
  210                         5.99      6.00      5.99      0.01         0.01
  211                         6.00      6.00      6.00      0.02         0.01
  212                         5.99      6.00      5.99      6.00         5.99
  213                         5.99      6.00      5.99      6.00         5.99
  214                         6.00      6.00      6.00      6.00         6.00
  215                         6.00      6.00      6.00      0.01         0.01
  216                         5.99      6.00      5.99      0.01         0.01
  217                         5.99      5.99      5.99      0.01         0.01
  218                         6.00      6.00      6.00      6.00         5.99
  219                         5.98      6.00      5.98      6.00         5.98
  680789                      0.01      1.48      0.01      0.01         0.01
  524648                      5.51      5.51      5.82      0.01         0.01
  315019                      5.87      5.87      5.88      0.01         0.01
  VERTIDO_EBAR_STA_MARIA        5.99      6.00      5.99      5.99         5.99
  526514                      5.96      5.96      5.97      0.02         0.03
  526515                      0.01      0.01      0.02      0.01         0.01
  526516                      0.01      2.55      0.01      5.95         0.01
  526504                      0.01      0.73      0.01      6.00         0.01
  526503                      5.98      5.98      5.98      0.28         0.41
  526510                      5.97      5.97      5.98      0.01         0.01
  526492                      0.01      0.01      5.95      0.01         0.01
  526509                      5.96      5.96      5.97      0.01         0.01
  526524                      0.49      0.49      5.99      0.01         0.01
  526518                      5.99      5.99      5.99      0.01         0.01
  526517                      5.99      5.99      5.99      5.99         5.99
  526519                      5.99      5.99      5.99      0.01         0.01
  526523                      5.99      5.99      5.99      5.99         0.01
  526486                      0.01      0.01      0.68      0.01         0.01
  526465                      5.99      6.00      5.99      0.02         0.01
  526466                      5.99      5.99      5.99      0.01         0.01
  526467                      5.99      5.99      5.99      5.99         5.99
  526468                      5.98      5.98      5.99      0.01         0.01
  526475                      5.99      5.99      5.99      5.99         5.99
  526477                      0.01      0.01      5.97      0.01         0.01
  526542                      5.99      6.00      5.99      6.00         5.99
  526543                      5.99      5.99      5.99      5.99         5.99
  526544                      5.99      5.99      5.99      5.99         5.99
  526545                      0.01      5.99      0.01      5.99         0.01
  526546                      0.01      0.01      5.95      0.01         0.01
  526547                      5.98      5.98      5.98      0.01         0.01
  526548                      5.98      5.98      5.99      0.01         0.01
  223                         5.99      5.99      5.99      5.98         5.98
  526559                      5.99      5.99      6.00      0.01         0.01
  526541                      6.00      6.00      6.00      6.00         6.00
  ORIFICIO2                   5.91      5.92      5.91      5.92         5.91
  224                         5.99      5.99      6.00      0.01         0.01
  225                         5.99      6.00      5.99      0.01         0.01
  12872                       5.99      5.99      5.99      5.99         5.99
  
  
  ***************
  Pumping Summary
  ***************
  
  ---------------------------------------------------------------------------------------------------------
                                                  Min       Avg       Max     Total     Power    % Time Off
                        Percent   Number of      Flow      Flow      Flow    Volume     Usage    Pump Curve
  Pump                 Utilized   Start-Ups       CMS       CMS       CMS  10^6 ltr     Kw-hr    Low   High
  ---------------------------------------------------------------------------------------------------------
  EBAR_VALDEMANCO         24.66        1199      0.00      2.32     10.62    12.152    922.10    0.0   50.0
  EBAR_STA_MARIA          49.88        2440      0.00      0.78      2.34     8.317    199.96    0.0    0.0
  

  Analysis begun on:  Fri Nov 29 10:45:42 2019
  Analysis ended on:  Fri Nov 29 10:45:59 2019
  Total elapsed time: 00:00:17