
  EPA STORM WATER MANAGEMENT MODEL - VERSION 5.1 (Build 5.1.013)
  --------------------------------------------------------------

  WARNING 03: negative offset ignored for Link 12265
  WARNING 03: negative offset ignored for Link 12266
  WARNING 03: negative offset ignored for Link 13321
  WARNING 03: negative offset ignored for Link 13321_2
  WARNING 04: minimum elevation drop used for Conduit 13324
  WARNING 03: negative offset ignored for Link 13325
  WARNING 03: negative offset ignored for Link 13326
  WARNING 03: negative offset ignored for Link 13327
  WARNING 03: negative offset ignored for Link 13328
  WARNING 03: negative offset ignored for Link 13329
  WARNING 03: negative offset ignored for Link 13330
  WARNING 04: minimum elevation drop used for Conduit 13335
  WARNING 04: minimum elevation drop used for Conduit 13336
  WARNING 04: minimum elevation drop used for Conduit 13344
  WARNING 03: negative offset ignored for Link 13357
  WARNING 03: negative offset ignored for Link 13373
  WARNING 03: negative offset ignored for Link 13378
  WARNING 04: minimum elevation drop used for Conduit 13379
  WARNING 04: minimum elevation drop used for Conduit 13393
  WARNING 04: minimum elevation drop used for Conduit 13394
  WARNING 03: negative offset ignored for Link 13425
  WARNING 03: negative offset ignored for Link 13432
  WARNING 03: negative offset ignored for Link 13432
  WARNING 03: negative offset ignored for Link 13434
  WARNING 03: negative offset ignored for Link 13439
  WARNING 04: minimum elevation drop used for Conduit 13498
  WARNING 03: negative offset ignored for Link 13501
  WARNING 03: negative offset ignored for Link 13510
  WARNING 03: negative offset ignored for Link 13530
  WARNING 03: negative offset ignored for Link 13561
  WARNING 03: negative offset ignored for Link 13561
  WARNING 03: negative offset ignored for Link 13562
  WARNING 03: negative offset ignored for Link 13562
  WARNING 03: negative offset ignored for Link 13564
  WARNING 04: minimum elevation drop used for Conduit 13565
  WARNING 04: minimum elevation drop used for Conduit 13585
  WARNING 04: minimum elevation drop used for Conduit 13592
  WARNING 04: minimum elevation drop used for Conduit 13597
  WARNING 04: minimum elevation drop used for Conduit 13612
  WARNING 03: negative offset ignored for Link 13616
  WARNING 03: negative offset ignored for Link 13627
  WARNING 03: negative offset ignored for Link 13641
  WARNING 03: negative offset ignored for Link 13651
  WARNING 04: minimum elevation drop used for Conduit 13665
  WARNING 03: negative offset ignored for Link 13687
  WARNING 03: negative offset ignored for Link 13687
  WARNING 03: negative offset ignored for Link 13691
  WARNING 03: negative offset ignored for Link 13692
  WARNING 03: negative offset ignored for Link 13692
  WARNING 03: negative offset ignored for Link 13694
  WARNING 04: minimum elevation drop used for Conduit 13697
  WARNING 03: negative offset ignored for Link 13798
  WARNING 03: negative offset ignored for Link 13800
  WARNING 03: negative offset ignored for Link 13833
  WARNING 03: negative offset ignored for Link 13833
  WARNING 03: negative offset ignored for Link 13834
  WARNING 03: negative offset ignored for Link 13837
  WARNING 03: negative offset ignored for Link 13838
  WARNING 03: negative offset ignored for Link 13838
  WARNING 03: negative offset ignored for Link 13839
  WARNING 03: negative offset ignored for Link 13841
  WARNING 03: negative offset ignored for Link 13843
  WARNING 03: negative offset ignored for Link 13845
  WARNING 03: negative offset ignored for Link 13845
  WARNING 03: negative offset ignored for Link 13857
  WARNING 03: negative offset ignored for Link 13914
  WARNING 03: negative offset ignored for Link 13914
  WARNING 04: minimum elevation drop used for Conduit 13920
  WARNING 03: negative offset ignored for Link 13949
  WARNING 03: negative offset ignored for Link 14005
  WARNING 04: minimum elevation drop used for Conduit 14007
  WARNING 03: negative offset ignored for Link 14008
  WARNING 03: negative offset ignored for Link 14009
  WARNING 03: negative offset ignored for Link 14009
  WARNING 03: negative offset ignored for Link 14010
  WARNING 04: minimum elevation drop used for Conduit 14022
  WARNING 03: negative offset ignored for Link 15244
  WARNING 03: negative offset ignored for Link 15246
  WARNING 04: minimum elevation drop used for Conduit 15249
  WARNING 03: negative offset ignored for Link 16039
  WARNING 03: negative offset ignored for Link 16040
  WARNING 03: negative offset ignored for Link 16041
  WARNING 03: negative offset ignored for Link 16042
  WARNING 04: minimum elevation drop used for Conduit 16043
  WARNING 04: minimum elevation drop used for Conduit 16044
  WARNING 03: negative offset ignored for Link 16064
  WARNING 03: negative offset ignored for Link 16073
  WARNING 03: negative offset ignored for Link 16076
  WARNING 04: minimum elevation drop used for Conduit 16101
  WARNING 03: negative offset ignored for Link 16541
  WARNING 03: negative offset ignored for Link 16543
  WARNING 04: minimum elevation drop used for Conduit 16761
  WARNING 04: minimum elevation drop used for Conduit 16764
  WARNING 04: minimum elevation drop used for Conduit 16768
  WARNING 04: minimum elevation drop used for Conduit 16784
  WARNING 03: negative offset ignored for Link 16785
  WARNING 03: negative offset ignored for Link 16786
  WARNING 04: minimum elevation drop used for Conduit 16787
  WARNING 04: minimum elevation drop used for Conduit 16788
  WARNING 04: minimum elevation drop used for Conduit 16843
  WARNING 04: minimum elevation drop used for Conduit 16844
  WARNING 03: negative offset ignored for Link 18281
  WARNING 03: negative offset ignored for Link 18286
  WARNING 03: negative offset ignored for Link 18286
  WARNING 03: negative offset ignored for Link 18309
  WARNING 03: negative offset ignored for Link 18309
  WARNING 03: negative offset ignored for Link 18316
  WARNING 03: negative offset ignored for Link 18574
  WARNING 03: negative offset ignored for Link 18946
  WARNING 03: negative offset ignored for Link 18948
  WARNING 03: negative offset ignored for Link 19272
  WARNING 03: negative offset ignored for Link 19274
  WARNING 03: negative offset ignored for Link 19275
  WARNING 04: minimum elevation drop used for Conduit 19315
  WARNING 03: negative offset ignored for Link 19324
  WARNING 03: negative offset ignored for Link 19327
  WARNING 03: negative offset ignored for Link 19328
  WARNING 03: negative offset ignored for Link 19328
  WARNING 03: negative offset ignored for Link 19329
  WARNING 03: negative offset ignored for Link 19336
  WARNING 03: negative offset ignored for Link 19342
  WARNING 04: minimum elevation drop used for Conduit 19364
  WARNING 04: minimum elevation drop used for Conduit 19366
  WARNING 03: negative offset ignored for Link 19372
  WARNING 03: negative offset ignored for Link 19374
  WARNING 03: negative offset ignored for Link 19382
  WARNING 04: minimum elevation drop used for Conduit 19388
  WARNING 03: negative offset ignored for Link 19396
  WARNING 03: negative offset ignored for Link 19724
  WARNING 03: negative offset ignored for Link 19772
  WARNING 04: minimum elevation drop used for Conduit 19773
  WARNING 03: negative offset ignored for Link 19780
  WARNING 04: minimum elevation drop used for Conduit 20265
  WARNING 04: minimum elevation drop used for Conduit 20267
  WARNING 03: negative offset ignored for Link 20386
  WARNING 03: negative offset ignored for Link 20387
  WARNING 03: negative offset ignored for Link 20387
  WARNING 04: minimum elevation drop used for Conduit 20390
  WARNING 04: minimum elevation drop used for Conduit 20393
  WARNING 04: minimum elevation drop used for Conduit 20397
  WARNING 03: negative offset ignored for Link 20408
  WARNING 03: negative offset ignored for Link 20417
  WARNING 03: negative offset ignored for Link 20418
  WARNING 03: negative offset ignored for Link 20434
  WARNING 03: negative offset ignored for Link 20448
  WARNING 03: negative offset ignored for Link 20461
  WARNING 03: negative offset ignored for Link 20462
  WARNING 03: negative offset ignored for Link 21001
  WARNING 03: negative offset ignored for Link 21001
  WARNING 03: negative offset ignored for Link 21003
  WARNING 04: minimum elevation drop used for Conduit 21006
  WARNING 04: minimum elevation drop used for Conduit 21007
  WARNING 04: minimum elevation drop used for Conduit 21010
  WARNING 03: negative offset ignored for Link 21011
  WARNING 04: minimum elevation drop used for Conduit 21015
  WARNING 03: negative offset ignored for Link 21034
  WARNING 04: minimum elevation drop used for Conduit 21043
  WARNING 04: minimum elevation drop used for Conduit 21047
  WARNING 03: negative offset ignored for Link 21048
  WARNING 03: negative offset ignored for Link 21049
  WARNING 03: negative offset ignored for Link 21053
  WARNING 03: negative offset ignored for Link 21053
  WARNING 03: negative offset ignored for Link 21061
  WARNING 04: minimum elevation drop used for Conduit 21063_22
  WARNING 03: negative offset ignored for Link 21065
  WARNING 03: negative offset ignored for Link 21069
  WARNING 03: negative offset ignored for Link 21072
  WARNING 03: negative offset ignored for Link 21072
  WARNING 03: negative offset ignored for Link 21073
  WARNING 03: negative offset ignored for Link 21074
  WARNING 03: negative offset ignored for Link 21074
  WARNING 03: negative offset ignored for Link 21082
  WARNING 03: negative offset ignored for Link 21082
  WARNING 03: negative offset ignored for Link 21100
  WARNING 03: negative offset ignored for Link 21104
  WARNING 04: minimum elevation drop used for Conduit 21105
  WARNING 04: minimum elevation drop used for Conduit 21106
  WARNING 03: negative offset ignored for Link 21108
  WARNING 03: negative offset ignored for Link 21110
  WARNING 03: negative offset ignored for Link 21110
  WARNING 03: negative offset ignored for Link 21111
  WARNING 03: negative offset ignored for Link 21113
  WARNING 03: negative offset ignored for Link 21117
  WARNING 03: negative offset ignored for Link 21118
  WARNING 03: negative offset ignored for Link 21119
  WARNING 03: negative offset ignored for Link 21121
  WARNING 03: negative offset ignored for Link 21128
  WARNING 03: negative offset ignored for Link 21129
  WARNING 03: negative offset ignored for Link 21133
  WARNING 03: negative offset ignored for Link 21135
  WARNING 03: negative offset ignored for Link 21138
  WARNING 03: negative offset ignored for Link 21140
  WARNING 04: minimum elevation drop used for Conduit 21143
  WARNING 03: negative offset ignored for Link 21175
  WARNING 03: negative offset ignored for Link 21179
  WARNING 03: negative offset ignored for Link 21181
  WARNING 03: negative offset ignored for Link 21186
  WARNING 03: negative offset ignored for Link 21188
  WARNING 03: negative offset ignored for Link 21189
  WARNING 03: negative offset ignored for Link 21191
  WARNING 03: negative offset ignored for Link 21194
  WARNING 03: negative offset ignored for Link 21196
  WARNING 03: negative offset ignored for Link 21196
  WARNING 03: negative offset ignored for Link 21198
  WARNING 03: negative offset ignored for Link 21203
  WARNING 03: negative offset ignored for Link 21204
  WARNING 04: minimum elevation drop used for Conduit 21207
  WARNING 04: minimum elevation drop used for Conduit 21247
  WARNING 03: negative offset ignored for Link 21252
  WARNING 03: negative offset ignored for Link 21255
  WARNING 03: negative offset ignored for Link 21256
  WARNING 03: negative offset ignored for Link 21261
  WARNING 03: negative offset ignored for Link 21281
  WARNING 03: negative offset ignored for Link 21285
  WARNING 03: negative offset ignored for Link 21285
  WARNING 03: negative offset ignored for Link 21286
  WARNING 03: negative offset ignored for Link 21292
  WARNING 03: negative offset ignored for Link 21294
  WARNING 03: negative offset ignored for Link 21298
  WARNING 03: negative offset ignored for Link 21300
  WARNING 03: negative offset ignored for Link 21305
  WARNING 03: negative offset ignored for Link 21383
  WARNING 04: minimum elevation drop used for Conduit 21394
  WARNING 04: minimum elevation drop used for Conduit 21396
  WARNING 03: negative offset ignored for Link 21418
  WARNING 03: negative offset ignored for Link 21418
  WARNING 03: negative offset ignored for Link 21420
  WARNING 04: minimum elevation drop used for Conduit 21443
  WARNING 04: minimum elevation drop used for Conduit 21444
  WARNING 03: negative offset ignored for Link 21445
  WARNING 04: minimum elevation drop used for Conduit 21452
  WARNING 03: negative offset ignored for Link 21453
  WARNING 04: minimum elevation drop used for Conduit 21454
  WARNING 03: negative offset ignored for Link 22565
  WARNING 03: negative offset ignored for Link 22568
  WARNING 04: minimum elevation drop used for Conduit 22572
  WARNING 04: minimum elevation drop used for Conduit 22587
  WARNING 04: minimum elevation drop used for Conduit 22588
  WARNING 04: minimum elevation drop used for Conduit 23048
  WARNING 04: minimum elevation drop used for Conduit 23049
  WARNING 03: negative offset ignored for Link 23096
  WARNING 04: minimum elevation drop used for Conduit 23096
  WARNING 03: negative offset ignored for Link 23804
  WARNING 03: negative offset ignored for Link 23804
  WARNING 03: negative offset ignored for Link 23881
  WARNING 03: negative offset ignored for Link 23882
  WARNING 03: negative offset ignored for Link 23882
  WARNING 03: negative offset ignored for Link 24456
  WARNING 03: negative offset ignored for Link 24457
  WARNING 04: minimum elevation drop used for Conduit 24575
  WARNING 03: negative offset ignored for Link 24698
  WARNING 04: minimum elevation drop used for Conduit 24841
  WARNING 04: minimum elevation drop used for Conduit 24845
  WARNING 04: minimum elevation drop used for Conduit 24846
  WARNING 03: negative offset ignored for Link 25060
  WARNING 03: negative offset ignored for Link 25067
  WARNING 03: negative offset ignored for Link 4182
  WARNING 03: negative offset ignored for Link 4530
  WARNING 03: negative offset ignored for Link 4530
  WARNING 03: negative offset ignored for Link 4531
  WARNING 03: negative offset ignored for Link 4533
  WARNING 03: negative offset ignored for Link 4534
  WARNING 03: negative offset ignored for Link 8459
  
  *********************************************************
  NOTE: The summary statistics displayed in this report are
  based on results found at every computational time step,  
  not just on results from each reporting time step.
  *********************************************************
  
  ****************
  Analysis Options
  ****************
  Flow Units ............... LPS
  Process Models:
    Rainfall/Runoff ........ NO
    RDII ................... NO
    Snowmelt ............... NO
    Groundwater ............ NO
    Flow Routing ........... YES
    Ponding Allowed ........ NO
    Water Quality .......... NO
  Flow Routing Method ...... DYNWAVE
  Surcharge Method ......... EXTRAN
  Starting Date ............ 01/01/2002 20:00:00
  Ending Date .............. 01/02/2002 06:00:00
  Antecedent Dry Days ...... 5.0
  Report Time Step ......... 00:00:30
  Routing Time Step ........ 10.00 sec
  Variable Time Step ....... YES
  Maximum Trials ........... 8
  Number of Threads ........ 1
  Head Tolerance ........... 0.000100 m
  
  
  **************************        Volume        Volume
  Flow Routing Continuity        hectare-m      10^6 ltr
  **************************     ---------     ---------
  Dry Weather Inflow .......         3.573        35.727
  Wet Weather Inflow .......         0.000         0.000
  Groundwater Inflow .......         0.000         0.000
  RDII Inflow ..............         0.000         0.000
  External Inflow ..........         0.000         0.000
  External Outflow .........         2.823        28.231
  Flooding Loss ............         0.300         2.998
  Evaporation Loss .........         0.000         0.000
  Exfiltration Loss ........         0.000         0.000
  Initial Stored Volume ....         0.046         0.457
  Final Stored Volume ......         0.466         4.657
  Continuity Error (%) .....         0.822
  
  
  *************************
  Highest Continuity Errors
  *************************
  Node 23768 (-45.38%)
  Node 13714 (-19.21%)
  Node 13705 (-10.49%)
  Node 10517 (9.12%)
  Node 5167 (-7.88%)
  
  
  ***************************
  Time-Step Critical Elements
  ***************************
  Link 21105 (52.94%)
  Link 13612 (5.90%)
  Link 21076 (4.48%)
  Link 13393 (3.16%)
  Link 21396 (2.25%)
  
  
  ********************************
  Highest Flow Instability Indexes
  ********************************
  Link 21074 (14)
  Link 21058 (13)
  Link 21069 (13)
  Link 21072 (12)
  Link 21065 (11)
  
  
  *************************
  Routing Time Step Summary
  *************************
  Minimum Time Step           :     0.26 sec
  Average Time Step           :     0.95 sec
  Maximum Time Step           :     3.73 sec
  Percent in Steady State     :    40.00
  Average Iterations per Step :     4.75
  Percent Not Converging      :   100.00
  
  
  ******************
  Node Depth Summary
  ******************
  
  ---------------------------------------------------------------------------------
                                 Average  Maximum  Maximum  Time of Max    Reported
                                   Depth    Depth      HGL   Occurrence   Max Depth
  Node                 Type       Meters   Meters   Meters  days hr:min      Meters
  ---------------------------------------------------------------------------------
  1031                 JUNCTION     0.00     0.00     0.11     0  00:00        0.00
  10452                JUNCTION     0.04     0.14    -0.20     0  09:53        0.14
  10453                JUNCTION     0.04     0.11    -0.74     0  06:34        0.11
  10454                JUNCTION     0.09     0.22    -0.78     0  05:04        0.22
  10514                JUNCTION     0.04     0.13    -0.04     0  09:53        0.13
  10516                JUNCTION     0.04     0.13    -0.43     0  05:02        0.13
  10517                JUNCTION     0.05     0.14    -0.57     0  05:05        0.14
  10518                JUNCTION     0.04     0.14    -0.30     0  05:01        0.14
  10536                JUNCTION     0.07     0.11     5.89     0  06:50        0.11
  10537                JUNCTION     0.08     0.14     3.14     0  06:50        0.14
  10538                JUNCTION     0.08     0.13     3.04     0  06:51        0.13
  10539                JUNCTION     0.08     0.14     2.56     0  06:51        0.14
  10575                JUNCTION     2.68     4.56     2.36     0  05:11        4.56
  10576                JUNCTION     2.55     4.35     2.37     0  06:53        4.35
  10577                JUNCTION     2.39     4.07     2.37     0  08:18        4.07
  10578                JUNCTION     2.25     3.84     2.39     0  07:42        3.84
  10579                JUNCTION     2.10     3.60     2.40     0  07:42        3.59
  10597                JUNCTION     0.07     0.32    -0.59     0  09:55        0.32
  10609                JUNCTION     0.05     0.11    -0.47     0  04:58        0.11
  10613                JUNCTION     0.05     0.11    -0.16     0  04:57        0.11
  10641                JUNCTION     0.02     0.04    -2.07     0  04:00        0.04
  10662                JUNCTION     0.05     0.08    -2.50     0  04:21        0.08
  10665                JUNCTION     0.03     0.06    -1.44     0  06:38        0.06
  10666                JUNCTION     0.03     0.04    -1.21     0  04:07        0.04
  10667                JUNCTION     0.04     0.06    -1.02     0  04:07        0.06
  10668                JUNCTION     0.04     0.07    -2.89     0  04:47        0.07
  10669                JUNCTION     0.06     0.26    -2.92     0  05:08        0.26
  10670                JUNCTION     0.10     0.40    -2.93     0  05:08        0.40
  10671                JUNCTION     0.03     0.04    -1.20     0  04:00        0.04
  10715                JUNCTION     1.42     2.39     2.35     0  04:44        2.39
  10716                JUNCTION     1.21     2.04     2.02     0  04:00        2.04
  10717                JUNCTION     1.16     1.96     1.98     0  08:46        1.96
  10718                JUNCTION     1.01     1.71     1.89     0  08:22        1.71
  10719                JUNCTION     0.83     1.41     1.76     0  04:00        1.40
  10720                JUNCTION     0.77     1.30     1.77     0  09:08        1.30
  10721                JUNCTION     0.62     1.04     1.80     0  04:00        1.04
  10722                JUNCTION     0.50     0.84     1.83     0  07:25        0.84
  10723                JUNCTION     0.03     0.04     2.81     0  04:46        0.04
  10724                JUNCTION     0.01     0.02    18.83     0  04:22        0.02
  10725                JUNCTION     0.01     0.02    33.89     0  04:21        0.02
  10726                JUNCTION     0.02     0.03    37.82     0  06:39        0.03
  10727                JUNCTION     0.03     0.05    38.52     0  04:10        0.05
  10728                JUNCTION     0.03     0.04    39.33     0  08:26        0.04
  10732                JUNCTION     0.02     0.03    41.41     0  04:21        0.03
  10733                JUNCTION     0.01     0.02    49.00     0  04:03        0.02
  10759                JUNCTION     0.09     0.15     1.79     0  07:10        0.15
  10770                JUNCTION     0.01     0.02    31.08     0  07:26        0.02
  10772                JUNCTION     0.01     0.01    30.77     0  04:31        0.01
  10773                JUNCTION     0.01     0.02    23.50     0  04:07        0.02
  10775                JUNCTION     0.02     0.04    21.40     0  05:58        0.04
  10776                JUNCTION     0.02     0.03    21.34     0  05:34        0.03
  10789                JUNCTION     0.02     0.03    21.68     0  05:37        0.03
  10883                JUNCTION     0.02     0.05    34.38     0  04:35        0.05
  10884                JUNCTION     0.02     0.06    33.08     0  06:56        0.06
  10885                JUNCTION     0.01     0.04    31.81     0  06:57        0.04
  10886                JUNCTION     0.01     0.03    31.28     0  06:57        0.03
  10902                JUNCTION     0.02     0.06   123.65     0  05:28        0.06
  10903                JUNCTION     0.02     0.06   123.12     0  05:28        0.06
  10904                JUNCTION     0.01     0.04   122.66     0  05:28        0.04
  10905                JUNCTION     0.01     0.03   121.81     0  05:28        0.03
  10912                JUNCTION     0.02     0.05   117.79     0  05:31        0.05
  10913                JUNCTION     0.02     0.06   118.28     0  05:29        0.06
  10914                JUNCTION     0.04     0.07   116.08     0  05:31        0.07
  10915                JUNCTION     0.02     0.05   111.87     0  05:31        0.05
  10916                JUNCTION     0.02     0.06   118.72     0  05:28        0.06
  10920                JUNCTION     0.02     0.07    59.29     0  06:37        0.07
  10921                JUNCTION     0.01     0.04    60.24     0  06:37        0.04
  10927                JUNCTION     0.01     0.02    66.18     0  07:56        0.02
  10928                JUNCTION     0.01     0.01    66.02     0  05:36        0.01
  10929                JUNCTION     0.01     0.02    63.80     0  06:37        0.02
  10930                JUNCTION     0.01     0.02    62.74     0  09:45        0.02
  10931                JUNCTION     0.01     0.01    62.38     0  04:39        0.01
  10932                JUNCTION     0.01     0.02    59.27     0  04:21        0.02
  10933                JUNCTION     0.01     0.03    56.82     0  08:28        0.03
  10937                JUNCTION     0.01     0.02    57.26     0  09:28        0.02
  10938                JUNCTION     0.01     0.02    57.73     0  04:44        0.02
  10939                JUNCTION     0.01     0.01    60.32     0  09:28        0.01
  10940                JUNCTION     0.01     0.01    62.00     0  06:38        0.01
  10941                JUNCTION     0.01     0.01    62.32     0  06:15        0.01
  10993                JUNCTION     0.03     0.04    -1.89     0  04:00        0.04
  10994                JUNCTION     0.03     0.05    -1.59     0  04:00        0.05
  11017                JUNCTION     0.09     0.15     2.37     0  06:51        0.15
  11024                JUNCTION     0.08     0.16     2.23     0  04:38        0.16
  11025                JUNCTION     0.06     0.12     1.95     0  04:38        0.12
  11026                JUNCTION     0.07     0.14     1.69     0  04:39        0.14
  11027                JUNCTION     0.06     0.11     1.36     0  08:59        0.11
  11031                JUNCTION     0.09     0.16     2.06     0  09:00        0.16
  11102                JUNCTION     0.03     0.05    -2.06     0  04:00        0.05
  11103                JUNCTION     0.03     0.05    -2.13     0  07:26        0.05
  11104                JUNCTION     0.02     0.04    -0.46     0  04:00        0.04
  11105                JUNCTION     0.02     0.03    -1.90     0  04:01        0.03
  11106                JUNCTION     0.01     0.02    -0.51     0  05:19        0.02
  11107                JUNCTION     0.02     0.03    -0.27     0  04:00        0.03
  11108                JUNCTION     0.02     0.03    -0.05     0  04:00        0.03
  11120                JUNCTION     0.06     0.10    -2.40     0  04:00        0.10
  11154                JUNCTION     0.02     0.04    -0.26     0  04:00        0.04
  11194                JUNCTION     0.01     0.04    34.95     0  04:33        0.04
  11201                JUNCTION     0.04     0.07    -4.12     0  04:07        0.07
  11217                JUNCTION     0.04     0.07    -3.47     0  04:10        0.07
  11219                JUNCTION     0.03     0.06    -3.63     0  04:20        0.06
  11220                JUNCTION     0.03     0.06    -3.97     0  08:29        0.06
  11234                JUNCTION     0.01     0.01   131.51     0  09:54        0.01
  11235                JUNCTION     0.01     0.01   128.83     0  04:14        0.01
  11236                JUNCTION     0.01     0.01   125.10     0  06:37        0.01
  11237                JUNCTION     0.01     0.01   121.85     0  04:27        0.01
  11273                JUNCTION     0.01     0.02    22.14     0  05:35        0.02
  11283                JUNCTION     0.40     1.65    -0.39     0  09:57        1.25
  11284                JUNCTION     0.37     1.57    -0.41     0  09:57        1.22
  11285                JUNCTION     0.38     1.51    -0.44     0  09:57        1.26
  11286                JUNCTION     0.35     1.40    -0.47     0  09:27        1.26
  11287                JUNCTION     0.25     1.20    -0.46     0  09:27        1.08
  11294                JUNCTION     0.18     1.03    -0.47     0  09:27        0.93
  11295                JUNCTION     0.13     0.81    -0.49     0  09:27        0.72
  11296                JUNCTION     0.10     0.88    -0.26     0  09:45        0.56
  11331                JUNCTION     0.00     0.00    -1.25     0  00:00        0.00
  11339                JUNCTION     0.03     0.09     1.28     0  09:55        0.09
  11340                JUNCTION     0.05     0.11    -0.59     0  06:16        0.11
  11341                JUNCTION     0.04     0.08    -0.68     0  06:16        0.08
  11342                JUNCTION     0.05     0.10    -0.85     0  07:56        0.10
  11343                JUNCTION     0.05     0.10    -1.08     0  09:50        0.10
  11344                JUNCTION     0.06     0.11    -1.26     0  09:51        0.11
  11345                JUNCTION     0.08     0.14    -1.32     0  09:52        0.14
  11346                JUNCTION     0.06     0.11    -1.39     0  09:52        0.11
  11364                JUNCTION     0.01     0.01     8.98     0  08:44        0.01
  11366                JUNCTION     0.01     0.01     4.68     0  04:45        0.01
  11367                JUNCTION     0.01     0.01     3.33     0  04:21        0.01
  11374                JUNCTION     0.01     0.02     2.45     0  04:10        0.02
  11375                JUNCTION     0.01     0.02     2.08     0  05:24        0.02
  11376                JUNCTION     0.01     0.02     1.77     0  04:10        0.02
  11377                JUNCTION     0.02     0.11     0.47     0  07:52        0.11
  11378                JUNCTION     0.04     0.18     0.47     0  05:14        0.18
  11381                JUNCTION     0.01     0.02     0.66     0  07:53        0.02
  11388                JUNCTION     0.01     0.07     8.08     0  08:45        0.07
  11389                JUNCTION     0.18     2.85     2.54     0  08:42        0.92
  11390                JUNCTION     0.31     1.98     1.46     0  08:42        1.36
  11391                JUNCTION     0.05     2.77     2.70     0  09:45        1.03
  11393                JUNCTION     0.12     2.51     2.47     0  08:43        0.90
  11394                JUNCTION     0.10     2.13     1.99     0  08:42        0.99
  11395                JUNCTION     0.32     2.96     2.41     0  08:42        1.28
  11492                JUNCTION     0.02     0.12     1.22     0  08:44        0.12
  11497                JUNCTION     0.09     0.16    -1.28     0  09:51        0.16
  11545                JUNCTION     0.03     0.05    -0.57     0  09:56        0.05
  11556                JUNCTION     0.01     0.03     2.25     0  09:22        0.03
  11557                JUNCTION     0.06     0.23    -0.68     0  09:51        0.23
  11561                JUNCTION     0.05     0.16    -0.67     0  09:51        0.16
  11702                JUNCTION     0.05     0.08    -2.31     0  04:45        0.08
  11703                JUNCTION     0.01     0.02    -1.79     0  05:25        0.02
  11704                JUNCTION     0.02     0.03    -1.50     0  04:12        0.03
  11705                JUNCTION     0.01     0.02     1.25     0  04:01        0.02
  11821                JUNCTION     0.21     1.13    -0.47     0  09:27        1.01
  11826                JUNCTION     0.14     0.84    -0.52     0  09:27        0.80
  11827                JUNCTION     0.17     0.99    -0.49     0  09:27        0.91
  11830                JUNCTION     0.11     0.72    -0.53     0  09:57        0.67
  11831                JUNCTION     0.07     0.48    -0.59     0  09:58        0.41
  11999                JUNCTION     0.09     0.17    11.24     0  08:04        0.17
  12017                JUNCTION     0.05     0.12     0.77     0  09:03        0.12
  12018                JUNCTION     0.03     0.06     0.41     0  09:03        0.06
  12019                JUNCTION     0.05     0.10    -0.20     0  09:03        0.10
  12020                JUNCTION     0.04     0.07     0.07     0  04:00        0.07
  12023                JUNCTION     0.04     0.08    -0.62     0  07:11        0.08
  12147                JUNCTION     0.01     0.01    39.16     0  04:44        0.01
  12148                JUNCTION     0.02     0.03    37.25     0  07:32        0.03
  12149                JUNCTION     0.02     0.03    37.48     0  09:54        0.03
  12150                JUNCTION     0.01     0.02    39.85     0  04:47        0.02
  12151                JUNCTION     0.01     0.02    41.82     0  04:47        0.02
  12152                JUNCTION     0.01     0.02    43.57     0  07:27        0.02
  12153                JUNCTION     0.01     0.01    46.47     0  04:00        0.01
  12154                JUNCTION     0.01     0.02    49.23     0  09:53        0.02
  12155                JUNCTION     0.01     0.01    54.61     0  06:14        0.01
  12156                JUNCTION     0.01     0.02    55.14     0  09:54        0.02
  12208                JUNCTION     0.05     0.08    22.32     0  07:03        0.08
  12209                JUNCTION     0.20     1.18    22.34     0  05:33        1.10
  12210                JUNCTION     0.08     0.93    21.13     0  05:33        0.82
  12211                JUNCTION     0.23     1.43    20.23     0  05:33        1.19
  12212                JUNCTION     0.65     1.68    18.57     0  05:33        1.61
  12213                JUNCTION     0.59     1.26    17.00     0  05:33        1.24
  12214                JUNCTION     0.05     0.08    15.48     0  06:46        0.08
  12215                JUNCTION     1.09     1.91     7.85     0  06:50        1.91
  12262                JUNCTION     0.06     0.11    11.09     0  08:04        0.11
  12266                JUNCTION     0.11     0.56    -1.44     0  09:47        0.55
  12267                JUNCTION     0.13     0.59    -1.44     0  09:47        0.59
  12268                JUNCTION     0.06     0.41    -1.42     0  04:22        0.38
  12269                JUNCTION     0.02     0.05    -1.45     0  05:47        0.05
  12272                JUNCTION     0.02     0.03    -1.08     0  04:00        0.03
  12281                JUNCTION     0.01     0.02    -0.40     0  04:00        0.02
  12283                JUNCTION     0.02     0.03    -0.06     0  04:00        0.03
  12312                JUNCTION     0.02     0.03     0.18     0  04:00        0.03
  12324                JUNCTION     0.04     0.13    -0.12     0  09:59        0.13
  12329                JUNCTION     1.78     3.05     2.38     0  07:06        3.05
  12331                JUNCTION     2.13     3.64     2.37     0  07:42        3.64
  12336                JUNCTION     0.02     0.03     0.09     0  04:00        0.03
  12564                JUNCTION     0.34     0.67    -1.68     0  08:37        0.67
  12769                JUNCTION     0.03     0.07    79.69     0  04:48        0.07
  12770                JUNCTION     0.04     0.11    80.28     0  04:48        0.11
  12771                JUNCTION     0.03     0.07    83.47     0  06:37        0.07
  12772                JUNCTION     0.04     0.10    84.38     0  04:48        0.10
  12773                JUNCTION     0.03     0.10    86.48     0  04:48        0.10
  12774                JUNCTION     0.02     0.06    88.28     0  04:47        0.06
  12775                JUNCTION     0.03     0.08    89.34     0  04:47        0.08
  12776                JUNCTION     0.01     0.05    91.50     0  04:47        0.05
  12778                JUNCTION     0.02     0.06   107.46     0  09:55        0.06
  12779                JUNCTION     0.04     0.10   109.30     0  09:55        0.10
  12780                JUNCTION     0.03     0.05    87.75     0  06:37        0.05
  12982                JUNCTION     0.05     0.08    -1.11     0  04:00        0.08
  12984                JUNCTION     0.05     0.09    -1.00     0  04:00        0.09
  12985                JUNCTION     0.03     0.05     0.23     0  04:00        0.05
  12988                JUNCTION     0.00     0.00     0.43     0  00:00        0.00
  13013                JUNCTION     0.04     0.06    -1.45     0  04:09        0.06
  13014                JUNCTION     0.04     0.07    -1.81     0  04:40        0.07
  13067                JUNCTION     0.02     0.05     9.27     0  07:16        0.05
  13068                JUNCTION     0.03     0.07     5.12     0  07:16        0.07
  13069                JUNCTION     0.08     0.17     3.73     0  07:18        0.17
  13070                JUNCTION     0.08     0.18     3.34     0  04:34        0.18
  13071                JUNCTION     0.08     0.17     3.19     0  04:35        0.17
  13151                JUNCTION     0.05     0.15   119.43     0  08:04        0.15
  13321_1              JUNCTION    24.03    52.35    56.60     0  06:59       49.12
  13329_1              JUNCTION    23.57    49.12    50.62     0  06:59       47.55
  13370_1              JUNCTION     7.02    21.86   151.86     0  06:36       20.34
  13391_1              JUNCTION     3.79    25.23    27.73     0  07:20       19.22
  13396_1              JUNCTION    12.96    21.94    23.74     0  04:43       21.94
  13449                JUNCTION     0.10     0.23    -1.06     0  06:40        0.23
  13450                JUNCTION     0.18     0.38    -0.12     0  09:59        0.38
  13452                JUNCTION     0.45     2.61     1.50     0  05:31        1.63
  13487                JUNCTION     0.00     0.00     1.31     0  00:00        0.00
  13488                JUNCTION     0.00     0.00     1.49     0  00:00        0.00
  13489                JUNCTION     0.00     0.00     1.15     0  00:00        0.00
  13490                JUNCTION     0.00     0.00     1.12     0  00:00        0.00
  13491                JUNCTION     0.09     0.19    -0.06     0  06:15        0.19
  13492                JUNCTION     0.01     0.02     1.72     0  04:45        0.02
  13494                JUNCTION     0.10     0.20    -2.65     0  04:38        0.20
  13495                JUNCTION     0.01     0.02     2.00     0  04:21        0.02
  13496                JUNCTION     0.06     0.13    -0.04     0  08:59        0.13
  13572                JUNCTION     0.02     0.03    -1.47     0  04:34        0.03
  13573                JUNCTION     0.03     0.05    -0.43     0  04:44        0.05
  13574                JUNCTION     0.03     0.04    -0.26     0  04:00        0.04
  13661                JUNCTION     0.03     0.05     0.05     0  04:00        0.05
  13674                JUNCTION    18.40    36.98    39.34     0  09:16       36.43
  13675                JUNCTION    17.34    32.52    32.62     0  08:08       31.76
  13676                JUNCTION    25.84    57.26    57.11     0  06:59       51.78
  13677                JUNCTION    23.14    46.57    47.17     0  09:16       46.50
  13678                JUNCTION    20.46    41.20    42.69     0  09:16       41.14
  13679                JUNCTION    19.35    38.98    40.83     0  09:16       38.61
  13680                JUNCTION    19.14    37.77    38.12     0  09:16       37.16
  13681                JUNCTION     6.10    10.53    12.63     0  07:29       10.53
  13682                JUNCTION     5.23     9.34    11.22     0  06:59        9.19
  13683                JUNCTION     6.95    18.41    40.74     0  09:10       17.68
  13684                JUNCTION     8.57    21.80    41.43     0  09:10       19.52
  13685                JUNCTION     9.37    21.17    39.76     0  09:10       19.36
  13698                JUNCTION     2.90    14.01    15.25     0  07:42       12.65
  13699                JUNCTION     2.19    14.70    16.50     0  04:12       13.79
  13700                JUNCTION     3.04    10.79    11.94     0  04:05        8.85
  13701                JUNCTION     1.91    15.73    17.63     0  08:42       12.42
  13703                JUNCTION     3.33    20.50    21.40     0  09:35       15.49
  13704                JUNCTION     0.33     6.76     6.91     0  06:28        4.91
  13705                JUNCTION     1.94    23.48    25.13     0  08:36       18.26
  13706                JUNCTION     0.02     1.37     2.22     0  09:43        0.72
  13707                JUNCTION     1.15     5.27     7.07     0  08:07        5.17
  13708                JUNCTION     2.65    14.68    16.58     0  08:43       11.90
  13709                JUNCTION     6.77    21.12    22.10     0  08:36       18.92
  13710                JUNCTION     0.37     5.42     7.07     0  09:39        3.94
  13711                JUNCTION     0.63     6.98     8.02     0  04:58        6.54
  13712                JUNCTION     6.11    21.88    23.07     0  08:54       16.49
  13713                JUNCTION     0.15     2.53     3.93     0  04:44        1.40
  13714                JUNCTION     0.01     3.05     5.50     0  09:31        0.27
  13716                JUNCTION     2.44    14.10    15.76     0  09:39       11.83
  13717                JUNCTION     6.54    23.85    25.57     0  04:47       20.87
  13718                JUNCTION    16.35    27.52   153.93     0  09:35       27.52
  13719                JUNCTION    17.31    44.63   154.64     0  08:45       43.31
  13720                JUNCTION     0.94     8.11    10.51     0  04:37        7.42
  13721                JUNCTION     1.20     5.89     7.73     0  06:33        5.11
  13722                JUNCTION     0.34     2.48     3.88     0  08:44        2.03
  13723                JUNCTION     1.83    12.73    13.94     0  07:10       12.28
  13724                JUNCTION     0.16     4.04     5.21     0  06:54        3.22
  13725                JUNCTION    13.04    35.45    36.60     0  07:43       35.37
  13726                JUNCTION     5.17     8.77    10.30     0  09:59        8.77
  13727                JUNCTION    14.87    35.75    38.73     0  05:13       35.50
  13728                JUNCTION     1.17    19.48    21.23     0  04:20       15.71
  13729                JUNCTION    14.27    36.68    39.22     0  07:54       30.72
  13730                JUNCTION     8.18    29.96    94.14     0  04:06       29.33
  13731                JUNCTION     3.59    22.79    24.42     0  08:42       18.83
  13732                JUNCTION     3.11    23.12    24.27     0  08:56       19.50
  13733                JUNCTION     5.85    34.61    36.16     0  06:49       29.38
  13734                JUNCTION     4.74    23.57    25.62     0  09:42       22.87
  13735                JUNCTION     4.66    25.35    26.98     0  07:12       19.02
  13736                JUNCTION     7.74    32.57    79.28     0  07:06       24.69
  13737                JUNCTION    15.20    25.83    26.64     0  04:43       25.83
  13738                JUNCTION     3.21    13.95    20.16     0  06:07       12.03
  13739                JUNCTION     8.71    28.63    59.71     0  07:33       26.05
  13742                JUNCTION     6.40    38.18    39.58     0  06:53       27.99
  13743                JUNCTION     0.35     5.58     7.45     0  05:09        5.35
  13744                JUNCTION     3.18    17.69    18.59     0  05:51       17.55
  13745                JUNCTION     2.99    23.72    25.12     0  04:47       20.32
  13746                JUNCTION     0.15    27.20    27.81     0  08:54        6.46
  13747                JUNCTION     1.34     6.51     8.44     0  08:54        6.39
  13748                JUNCTION     0.24     8.30     8.95     0  05:33        7.17
  13750                JUNCTION     0.02     0.09     2.14     0  04:40        0.08
  13751                JUNCTION     2.47    18.44    19.88     0  06:29       15.45
  13752                JUNCTION    13.25    39.43    41.14     0  05:47       37.30
  13753                JUNCTION     6.28    10.80    12.88     0  07:29       10.80
  13754                JUNCTION    18.05    32.60    34.82     0  09:46       32.50
  13755                JUNCTION     6.41    21.94    24.18     0  04:26       19.75
  13756                JUNCTION    11.25    37.54    48.61     0  05:35       34.84
  13757                JUNCTION     4.07    31.35    33.12     0  06:30       29.16
  13758                JUNCTION     3.42    40.84    42.67     0  05:21       39.74
  13759                JUNCTION     5.88    32.78    34.18     0  09:31       31.25
  13761                JUNCTION     3.79    19.70    21.60     0  06:07       17.41
  13762                JUNCTION     5.08    21.88    24.53     0  04:01       17.15
  13763                JUNCTION    12.96    21.82    87.43     0  05:51       21.82
  13764                JUNCTION    12.99    39.08    40.76     0  05:31       32.67
  13765                JUNCTION     0.01     0.04     2.94     0  09:32        0.04
  13766                JUNCTION    21.75    68.85    72.57     0  04:40       68.02
  13790                JUNCTION    25.71   200.60   262.75     0  06:33       89.96
  13803_1              JUNCTION     8.59    18.08    70.08     0  04:55       16.93
  13820                JUNCTION     0.02     0.11     2.01     0  05:45        0.10
  13830                JUNCTION    12.39    21.57    23.52     0  09:46       21.57
  13832                JUNCTION     2.55     9.33    11.65     0  07:48        8.43
  13833                JUNCTION     6.43    17.33    40.54     0  09:10       17.01
  13836                JUNCTION     6.94    25.51    25.87     0  09:07       21.13
  13837                JUNCTION     0.39    13.99    74.51     0  07:44        8.05
  13841                JUNCTION     0.35     5.31     7.21     0  08:46        3.85
  13842                JUNCTION     1.45     9.37   131.34     0  09:09        7.38
  13843                JUNCTION     2.81    12.82    14.35     0  09:35       10.51
  13844                JUNCTION     1.03    12.78    15.08     0  06:59       11.52
  13845                JUNCTION     0.21     5.04     6.44     0  08:53        3.81
  13848                JUNCTION     1.11     6.31     8.39     0  08:31        4.96
  13855                JUNCTION     5.66    24.43    26.33     0  06:57       21.49
  13856                JUNCTION    13.38    34.20    73.30     0  04:55       31.43
  13858                JUNCTION    15.94    44.55    46.25     0  08:43       44.43
  13859                JUNCTION     0.18     4.27     4.96     0  08:00        3.84
  13892                JUNCTION     5.54    25.97   115.86     0  08:40       23.69
  13931                JUNCTION     2.12    17.83    21.73     0  09:00       13.64
  13933                JUNCTION     0.25    18.87    20.37     0  09:29       11.16
  13934                JUNCTION    22.16    37.30    40.02     0  09:42       37.30
  13940                JUNCTION    15.50    47.96    47.06     0  08:42       45.70
  13942                JUNCTION    16.51    29.87    30.17     0  08:08       29.42
  13943                JUNCTION    17.38    32.63    32.73     0  08:08       31.88
  13944                JUNCTION    17.32    32.42    32.52     0  08:08       31.70
  13945                JUNCTION    19.15    37.82    38.17     0  09:16       37.21
  13946                JUNCTION    19.04    37.49    37.98     0  09:16       36.94
  13947                JUNCTION    18.33    36.91    39.43     0  09:16       36.34
  13948                JUNCTION    18.69    37.36    39.21     0  09:16       36.84
  13949                JUNCTION    19.42    39.11    40.87     0  09:16       38.76
  13950                JUNCTION    19.34    38.95    40.80     0  09:16       38.57
  13951                JUNCTION    20.48    41.22    42.65     0  09:16       41.14
  13952                JUNCTION    20.48    41.23    42.71     0  09:16       41.17
  13953                JUNCTION    23.29    46.80    47.13     0  09:16       46.74
  13954                JUNCTION    23.06    46.44    47.20     0  09:16       46.37
  13955                JUNCTION    25.85    57.27    57.12     0  06:59       51.80
  13956                JUNCTION    26.09    57.12    56.53     0  06:59       52.21
  13957                JUNCTION     5.05    15.97    18.32     0  04:16       15.92
  13958                JUNCTION     5.07    16.05    18.40     0  09:43       16.01
  13960                JUNCTION     3.61    36.92    38.52     0  05:22       30.58
  13978                JUNCTION     6.67    18.47    41.23     0  09:10       16.94
  13979                JUNCTION     7.53    19.79    41.22     0  09:10       17.45
  13980                JUNCTION     0.28     6.05     7.65     0  08:18        3.53
  13987                JUNCTION     1.12    10.54    12.04     0  09:06        8.88
  13988                JUNCTION     2.02    12.56    14.16     0  09:06       11.26
  13994                JUNCTION     2.31    16.33    17.18     0  05:52        9.35
  13995                JUNCTION     0.00     0.00     0.85     0  00:00        0.00
  14000                JUNCTION     1.37     7.88     8.98     0  09:06        6.38
  14001                JUNCTION     0.00     0.00     0.50     0  00:00        0.00
  14002                JUNCTION     0.03     0.09     1.69     0  08:13        0.09
  14004                JUNCTION     0.79     6.61     8.71     0  05:16        3.94
  14024                JUNCTION     0.15     1.98     4.23     0  09:29        0.93
  14035                JUNCTION     2.78    14.43    15.28     0  08:30       10.62
  14036                JUNCTION     3.41    20.92    22.02     0  08:30       14.83
  14037                JUNCTION     3.90    23.01    23.86     0  08:30       16.49
  14039                JUNCTION     0.01     0.05    66.77     0  04:09        0.05
  14040                JUNCTION     1.44    11.63    14.60     0  04:47       11.55
  14042                JUNCTION     0.20     0.84     3.92     0  08:46        0.48
  14043                JUNCTION     0.06     0.11     3.31     0  09:47        0.11
  14045                JUNCTION     2.41    16.47    18.91     0  04:15       10.93
  14115                JUNCTION     0.75    17.74    19.38     0  08:59        8.89
  14116                JUNCTION     4.03    28.17    29.27     0  05:34       25.77
  14117                JUNCTION     0.00     0.00     1.10     0  00:00        0.00
  14118                JUNCTION     2.45    15.94    17.04     0  08:59       13.06
  14119                JUNCTION     4.88    15.06    15.83     0  09:43       14.24
  14120                JUNCTION     5.35    16.00    16.23     0  09:43       15.18
  14121                JUNCTION     5.53    16.41    16.63     0  09:43       15.60
  14122                JUNCTION     5.52    16.44    17.09     0  09:43       15.66
  14123                JUNCTION     5.98    17.21    17.42     0  04:16       16.68
  14124                JUNCTION     4.19    12.61    13.21     0  09:43       11.85
  14125                JUNCTION     4.84    14.04    13.81     0  09:43       13.26
  14127                JUNCTION     4.14    13.47    15.04     0  09:43       12.67
  14128                JUNCTION     3.82    11.38    12.23     0  09:43       10.71
  14129                JUNCTION     2.40     5.13     6.07     0  09:43        5.10
  14130                JUNCTION     2.45     5.26     6.11     0  09:43        5.21
  14131                JUNCTION     2.91     8.62    10.29     0  09:43        8.15
  14132                JUNCTION     3.04     5.95     7.80     0  09:43        5.94
  14133                JUNCTION     3.89     7.41     8.66     0  06:59        7.27
  14140                JUNCTION    10.50    36.78    37.17     0  08:43       36.67
  14142                JUNCTION     3.54    24.85    25.45     0  04:47       22.56
  14143                JUNCTION     2.45    15.69   115.54     0  06:33       14.74
  14144                JUNCTION     2.08    12.86   115.81     0  06:14       12.36
  14152                JUNCTION     3.73    19.66    20.26     0  04:10       17.53
  14163                JUNCTION     3.17    22.09    23.94     0  08:30       15.24
  14164                JUNCTION     0.71     6.38     7.88     0  09:53        4.61
  14177                JUNCTION    12.52    37.06    43.91     0  05:12       33.52
  14232                JUNCTION     2.27    19.93    23.14     0  09:00       13.40
  14234                JUNCTION     0.01     0.07     1.67     0  07:13        0.07
  14235                JUNCTION     0.63     9.68    15.18     0  08:18        4.21
  14983                JUNCTION     0.62     4.26     5.36     0  06:25        3.33
  15041                JUNCTION     0.01     0.02     0.47     0  04:38        0.02
  15068                JUNCTION     0.00     0.01     0.91     0  04:47        0.01
  15451                JUNCTION     6.44    39.14    39.49     0  06:49       30.89
  15453                JUNCTION     4.65     8.68     9.27     0  06:59        8.48
  15462                JUNCTION     7.69    19.90    21.35     0  07:43       19.05
  15469                JUNCTION     5.99    28.02    29.35     0  09:46       19.36
  15470                JUNCTION     0.21     7.94     8.54     0  08:46        3.46
  15472                JUNCTION     1.74    10.24    11.33     0  05:37        5.77
  15475                JUNCTION     0.51     5.03     7.13     0  05:16        3.11
  15581                JUNCTION     0.03     0.08     6.18     0  09:54        0.08
  15601                JUNCTION    20.06    40.72    43.95     0  09:16       40.71
  15902                JUNCTION    13.45    43.02    43.72     0  05:31       33.34
  15903                JUNCTION    12.99    40.99    41.59     0  08:34       31.75
  16024_1              JUNCTION    19.04    32.05    35.40     0  05:35       32.05
  16024_11             JUNCTION    13.86    23.33    24.68     0  09:07       23.33
  16024_12             JUNCTION     0.05     0.09    19.09     0  04:47        0.09
  16103                JUNCTION     0.00     0.00     1.51     0  00:00        0.00
  16121                JUNCTION     0.30     6.38     7.98     0  08:18        3.68
  16122                JUNCTION     0.02     0.08     1.37     0  04:33        0.08
  16141                JUNCTION     2.27    16.22    17.07     0  05:52        9.26
  16212                JUNCTION     0.66     6.44     8.04     0  09:53        4.48
  16213                JUNCTION     3.19    22.45    24.30     0  08:30       15.43
  16541                JUNCTION     0.04     0.17    -1.66     0  08:07        0.17
  16621                JUNCTION     4.69     8.65     9.98     0  06:59        8.46
  16622                JUNCTION     5.71     9.89    12.28     0  07:29        9.89
  17203                JUNCTION    15.37    27.53    28.61     0  09:46       27.51
  17204                JUNCTION    15.17    27.13    28.13     0  09:46       27.11
  17207                JUNCTION    18.55    33.55    34.21     0  09:46       33.34
  17209                JUNCTION    18.40    33.31    34.18     0  09:46       33.12
  17223                JUNCTION    14.14    28.11    29.19     0  04:15       26.16
  17224                JUNCTION    14.44    28.45    29.49     0  04:15       26.63
  17227                JUNCTION     9.32    21.78    23.13     0  04:15       18.42
  17228                JUNCTION     8.39    20.70    21.40     0  09:46       17.03
  17443                JUNCTION     3.63    14.02    18.62     0  09:46        9.93
  17448                JUNCTION     2.70     8.57    13.17     0  04:54        7.99
  17451                JUNCTION     2.74     9.52    14.38     0  04:38        8.14
  17569                JUNCTION     0.10     0.45    -2.10     0  08:02        0.45
  17805                JUNCTION     0.01     0.07     0.83     0  06:45        0.07
  17806                JUNCTION     0.05     0.16     0.76     0  09:17        0.16
  17846                JUNCTION     1.06    14.53    15.59     0  05:52       11.76
  17861                JUNCTION     1.06    15.40    16.56     0  05:52       12.52
  17901                JUNCTION     0.15     0.27     1.07     0  09:00        0.27
  17902                JUNCTION     0.08     0.15     0.75     0  09:01        0.15
  17903                JUNCTION     0.14     0.57    -0.68     0  09:42        0.56
  17904                JUNCTION     0.11     3.82     2.67     0  05:57        1.37
  17905                JUNCTION     0.13     0.36    -0.64     0  06:24        0.35
  17906                JUNCTION     0.11     0.20    -0.60     0  07:22        0.20
  17907                JUNCTION     0.11     0.21    -0.38     0  07:22        0.21
  18013                JUNCTION    16.93    46.98    56.57     0  04:40       45.45
  18014                JUNCTION     0.02     0.08    36.49     0  07:14        0.08
  18016                JUNCTION     5.09    22.82    51.98     0  04:40       21.83
  18042                JUNCTION    13.40    35.43    36.28     0  07:43       35.14
  18043                JUNCTION    12.57    34.07    36.22     0  07:43       33.72
  18044                JUNCTION    12.50    33.92    36.20     0  07:43       33.55
  18045                JUNCTION    14.46    37.04    36.14     0  07:43       36.59
  18046                JUNCTION    12.21    33.12    35.97     0  07:43       32.65
  18047                JUNCTION    12.21    33.15    36.00     0  07:43       32.67
  18055                JUNCTION    13.33    35.31    36.27     0  07:43       34.99
  18056                JUNCTION    12.95    34.35    34.84     0  07:43       33.54
  18058                JUNCTION    13.47    34.99    35.24     0  07:43       34.07
  18060                JUNCTION    12.61    33.87    35.22     0  07:43       32.74
  18062                JUNCTION    12.78    34.48    35.26     0  07:43       33.31
  18065                JUNCTION    12.67    34.75    35.23     0  07:43       33.62
  18068                JUNCTION    12.53    34.64    35.18     0  07:43       33.55
  18069                JUNCTION    12.96    34.46    34.94     0  07:43       33.57
  18071                JUNCTION    12.51    33.07    34.02     0  07:43       32.74
  18073                JUNCTION    12.59    32.89    33.49     0  07:43       32.82
  18077                JUNCTION    12.38    33.07    33.64     0  07:43       32.38
  18078                JUNCTION    12.21    32.95    33.64     0  07:43       32.06
  18082                JUNCTION    11.93    32.79    33.54     0  07:43       31.48
  18083                JUNCTION    12.03    32.94    33.39     0  07:43       31.53
  18084                JUNCTION    12.82    34.13    33.23     0  07:43       32.73
  18086                JUNCTION    12.45    33.17    32.53     0  07:43       31.79
  18087                JUNCTION    12.95    34.54    35.05     0  07:43       33.56
  18089                JUNCTION    12.84    34.79    35.33     0  07:43       33.76
  18091                JUNCTION    13.53    41.64    42.50     0  06:25       35.49
  18363                JUNCTION     0.09     0.18    -0.46     0  06:12        0.18
  18390                JUNCTION     0.06     0.10     2.35     0  06:15        0.10
  18393                JUNCTION     0.05     0.08     2.53     0  04:08        0.08
  18394                JUNCTION     0.05     0.08     2.73     0  04:07        0.08
  18402                JUNCTION    12.55    34.59    35.10     0  07:43       33.57
  18404                JUNCTION    12.53    34.62    35.16     0  07:43       33.55
  18405                JUNCTION     3.04    13.91    14.86     0  07:42       12.77
  18406                JUNCTION     2.81    13.83    15.18     0  07:42       12.48
  18407                JUNCTION     3.04    13.77    14.73     0  07:42       12.73
  18424                JUNCTION     0.05     0.09     0.79     0  08:17        0.09
  18941                JUNCTION     0.00     0.00     1.29     0  00:00        0.00
  18942                JUNCTION     0.00     0.00     0.00     0  00:00        0.00
  18990                JUNCTION     5.43    18.71    86.19     0  08:54       18.27
  18991                JUNCTION     0.02     0.04    65.38     0  08:04        0.04
  18992                JUNCTION     0.02     0.03    65.61     0  05:36        0.03
  18993                JUNCTION     0.02     0.03    65.80     0  04:20        0.03
  18995                JUNCTION     0.02     0.03    65.99     0  08:09        0.03
  18996                JUNCTION     0.02     0.04    66.23     0  04:43        0.04
  19002                JUNCTION     0.02     0.03    66.97     0  04:34        0.03
  19003                JUNCTION     0.01     0.02    70.29     0  05:09        0.02
  19016                JUNCTION     0.02     0.07    77.35     0  05:14        0.07
  19017                JUNCTION     0.02     0.07    77.85     0  04:22        0.07
  19019                JUNCTION     0.02     0.05    78.82     0  09:54        0.05
  19020                JUNCTION     0.02     0.04    80.06     0  09:54        0.04
  19021                JUNCTION     0.02     0.05    81.12     0  09:54        0.05
  19022                JUNCTION     0.02     0.07    81.22     0  09:54        0.07
  19044                JUNCTION    13.68    35.89    36.28     0  07:43       35.63
  19048                JUNCTION    12.21    33.17    36.02     0  07:43       32.70
  19053                JUNCTION    14.45    37.03    36.13     0  07:43       36.56
  19055                JUNCTION    13.14    34.62    35.22     0  07:43       33.49
  19057                JUNCTION    12.95    34.65    35.25     0  07:43       33.49
  19063                JUNCTION    13.01    34.92    35.27     0  07:43       33.76
  19066                JUNCTION    12.55    34.62    35.22     0  07:43       33.50
  19067                JUNCTION    12.75    34.58    35.26     0  07:43       33.57
  19082                JUNCTION    12.63    32.99    33.59     0  07:43       32.91
  19084                JUNCTION    12.56    32.91    33.51     0  07:43       32.76
  19088                JUNCTION    12.15    32.51    33.61     0  07:43       32.02
  19090                JUNCTION    11.78    32.50    33.60     0  07:43       31.26
  19093                JUNCTION    11.98    31.72    31.84     0  07:43       30.56
  19098                JUNCTION    12.31    32.73    32.33     0  07:43       31.42
  19101                JUNCTION     0.10     0.19    -0.44     0  06:39        0.19
  19122                JUNCTION    14.44    37.00    36.10     0  07:43       36.53
  19123                JUNCTION    12.53    33.81    33.51     0  07:43       32.43
  19128                JUNCTION    12.68    33.68    32.78     0  07:43       32.29
  19133                JUNCTION    12.91    33.95    35.70     0  07:43       33.55
  19245                JUNCTION     0.06    12.20    13.95     0  04:59        8.93
  19461                JUNCTION     1.54    29.72    32.64     0  05:45       27.87
  19462                JUNCTION     0.07     0.14     3.74     0  09:47        0.14
  19463                JUNCTION     0.20     4.44     7.19     0  09:03        1.59
  19464                JUNCTION     0.39     6.16     8.26     0  09:43        2.66
  19465                JUNCTION     0.27     1.87     3.47     0  09:54        1.73
  19466                JUNCTION     0.90     1.79     0.64     0  04:04        1.78
  19467                JUNCTION     2.09    18.88    20.48     0  08:42       11.94
  19468                JUNCTION     1.88    16.76    18.36     0  08:42        9.14
  19469                JUNCTION     2.48     9.30     9.65     0  09:45        8.80
  19470                JUNCTION     2.21    11.31    11.66     0  05:16        9.07
  19473                JUNCTION     0.09     0.26     0.06     0  04:26        0.26
  19475                JUNCTION    10.59    55.78    57.14     0  04:10       47.97
  19477                JUNCTION     0.55     3.93     5.43     0  05:52        3.08
  19478                JUNCTION     0.33     6.42     8.31     0  05:52        4.91
  19483                JUNCTION     0.96     2.87     3.72     0  05:20        2.35
  19484                JUNCTION     0.97     2.98     3.83     0  06:10        2.42
  19486                JUNCTION     0.94     2.69     3.54     0  05:20        2.27
  19487                JUNCTION     0.92     2.62     3.47     0  08:50        2.19
  19490                JUNCTION    11.95    45.59    47.06     0  04:10       35.83
  19491                JUNCTION     0.86    11.12    12.46     0  05:35        9.40
  19492                JUNCTION    10.98    61.13    63.14     0  09:27       48.48
  19493                JUNCTION     0.50    12.99    14.42     0  05:51        4.69
  19494                JUNCTION    11.84    58.45    58.80     0  09:27       50.77
  19495                JUNCTION     1.14     9.48    10.03     0  05:35        7.58
  19496                JUNCTION     0.56     5.83     7.18     0  06:57        4.58
  19498                JUNCTION     1.28    11.28    11.63     0  05:35        9.13
  19499                JUNCTION     0.90     6.26     7.06     0  06:57        4.68
  19500                JUNCTION     0.92     6.37     7.12     0  06:57        4.90
  19502                JUNCTION     0.36    10.31    12.16     0  09:05        5.47
  19514                JUNCTION     0.03     0.08     4.68     0  08:21        0.08
  19515                JUNCTION     0.10     0.57     5.52     0  04:15        0.35
  19517                JUNCTION     0.48     2.40     3.25     0  08:06        1.87
  19518                JUNCTION     0.36     2.70     3.55     0  08:06        1.63
  19520                JUNCTION     3.18     5.36   148.23     0  04:20        5.36
  19521                JUNCTION     3.31     5.57   148.27     0  04:20        5.57
  19523                JUNCTION     5.54    24.13    26.43     0  05:59       20.19
  19524                JUNCTION     6.26    25.17    26.20     0  05:59       20.36
  19525                JUNCTION     6.34    24.93    25.55     0  07:22       21.28
  19526                JUNCTION     6.31    24.38    25.15     0  07:22       20.98
  19527                JUNCTION     6.42    25.33    25.73     0  07:22       21.53
  19528                JUNCTION     5.20    23.52    25.84     0  07:22       19.50
  19529                JUNCTION     2.91    19.49    25.80     0  07:22       15.35
  19530                JUNCTION     4.73    21.23    23.02     0  07:22       17.13
  19531                JUNCTION     4.50    21.23    23.67     0  07:22       17.07
  19532                JUNCTION     4.36    19.60    21.57     0  07:22       15.75
  19533                JUNCTION     4.74    19.54    20.69     0  07:22       15.89
  19534                JUNCTION     3.88    15.01    16.87     0  07:22       12.15
  19535                JUNCTION     4.72    15.75    16.07     0  07:22       13.07
  19536                JUNCTION     0.05     0.10     6.80     0  06:45        0.10
  19537                JUNCTION     0.23     3.48    10.23     0  04:17        1.50
  19541                JUNCTION     1.31    11.67    12.02     0  05:35        9.54
  19560                JUNCTION    10.84    29.23    30.51     0  07:43       28.06
  19561                JUNCTION    10.29    27.35    28.33     0  07:43       26.16
  19562                JUNCTION     5.46    15.53    19.94     0  07:43       14.82
  19563                JUNCTION     6.18    15.80    17.92     0  07:43       15.29
  19564                JUNCTION     3.03     9.92    14.62     0  04:38        9.00
  19565                JUNCTION     3.05    10.01    14.61     0  04:38        8.89
  19566                JUNCTION     6.23    32.79    34.39     0  09:46       22.14
  19567                JUNCTION     3.34    32.13    39.40     0  09:46       19.74
  19568                JUNCTION     2.63    30.37    38.66     0  09:46       18.13
  19569                JUNCTION     3.84    32.32    39.37     0  09:46       20.37
  19570                JUNCTION     9.33    35.30    35.57     0  04:15       27.54
  19571                JUNCTION     9.70    35.19    35.42     0  04:15       30.48
  19572                JUNCTION    10.43    38.32    39.35     0  08:43       38.15
  19573                JUNCTION    11.35    40.93    41.78     0  08:43       40.64
  19574                JUNCTION    11.77    41.15    42.17     0  08:43       41.05
  19575                JUNCTION    14.46    45.93    45.03     0  08:42       44.69
  19576                JUNCTION    14.39    45.65    44.75     0  08:42       44.63
  19603                JUNCTION     2.45    10.98    19.28     0  09:43       10.98
  19605                JUNCTION     0.05     0.12    29.90     0  05:52        0.12
  19606                JUNCTION     1.03    26.03    28.13     0  06:03       13.71
  19607                JUNCTION     0.25    13.37    15.47     0  04:40        5.74
  19608                JUNCTION     6.25    33.42    43.61     0  08:34       33.16
  19609                JUNCTION     5.96    31.30    39.65     0  08:34       28.44
  19610                JUNCTION     5.83    34.07    43.42     0  08:34       31.86
  19611                JUNCTION     6.07    34.81    44.36     0  08:34       33.59
  19612                JUNCTION     0.32     3.87     5.47     0  04:42        2.06
  19613                JUNCTION    21.87    66.61    68.96     0  04:40       64.81
  19614                JUNCTION    22.56    71.84    74.13     0  04:40       69.71
  19615                JUNCTION    14.27    25.24    26.07     0  09:46       25.23
  19621                JUNCTION     6.88    36.25    36.22     0  06:49       31.26
  19623                JUNCTION     6.42    39.80    40.41     0  06:49       31.68
  19624                JUNCTION     5.15    26.54    28.00     0  06:49       20.98
  19625                JUNCTION     5.58    21.86    22.21     0  06:49       18.07
  19626                JUNCTION     3.14    23.23    24.27     0  04:55       15.78
  19627                JUNCTION     2.89    23.00    24.38     0  04:55       15.84
  19628                JUNCTION     1.36     9.78     8.63     0  04:26        7.04
  19629                JUNCTION     0.00     0.08     1.36     0  07:50        0.08
  19630                JUNCTION     0.09     1.83     2.98     0  04:26        1.10
  19631                JUNCTION     0.17     6.89     7.80     0  04:26        3.73
  19633                JUNCTION     0.67     6.39     7.49     0  09:00        2.27
  19641                JUNCTION     2.08    11.78   115.23     0  06:33       11.28
  19759                JUNCTION     0.99    19.29    20.65     0  08:59        9.54
  19760                JUNCTION     0.04     0.14     1.70     0  09:55        0.14
  19761                JUNCTION     0.23     3.51     5.11     0  08:40        1.81
  19762                JUNCTION     0.18     3.10     4.70     0  08:40        1.48
  19780                JUNCTION     3.37    20.51    21.11     0  09:35       15.26
  19792                JUNCTION     1.42    15.48    15.87     0  08:59        8.31
  19793                JUNCTION     0.78     9.70    11.07     0  08:59        5.22
  19801                JUNCTION     2.65    17.92    18.52     0  09:35       12.36
  19802                JUNCTION     2.75    18.63    19.23     0  09:35       12.81
  19806                JUNCTION     2.57    11.88    13.30     0  07:42       11.26
  19809                JUNCTION     0.00     0.00     1.10     0  00:00        0.00
  19811                JUNCTION     2.83    40.00    42.35     0  05:20       38.98
  19814                JUNCTION     0.17     4.43     6.03     0  07:08        2.53
  19815                JUNCTION     0.10     4.57     6.17     0  07:08        2.11
  20761                JUNCTION     0.00     0.00     9.00     0  00:00        0.00
  21063_1              JUNCTION     0.77     7.38     8.38     0  09:05        5.38
  21063_11             JUNCTION     0.77     9.44    10.44     0  09:05        5.76
  21201                JUNCTION    21.84    73.74    77.15     0  04:40       71.66
  21202                JUNCTION    21.88    74.63    77.98     0  04:40       72.55
  21204                JUNCTION    21.89    74.50    77.85     0  04:40       72.44
  21241                JUNCTION     0.49     2.00     6.33     0  04:16        1.84
  21242                JUNCTION     1.04     9.98    12.58     0  08:36        3.45
  21243                JUNCTION     1.07     7.86    10.46     0  08:36        3.75
  21245                JUNCTION     0.04     0.07     0.81     0  08:49        0.07
  21545                JUNCTION     0.09     0.15     1.78     0  04:00        0.15
  21685                JUNCTION     0.01     0.05     1.52     0  04:42        0.05
  21688                JUNCTION     0.00     0.00     1.60     0  04:00        0.00
  22443                JUNCTION     6.95    11.94    12.78     0  07:29       11.94
  22562                JUNCTION    17.67    29.75   152.84     0  09:35       29.75
  22570                JUNCTION     0.06     0.10    18.21     0  08:03        0.10
  2262                 JUNCTION     5.70    10.08    11.43     0  06:59        9.96
  22677                JUNCTION     0.00     0.00    -0.02     0  00:00        0.00
  2272                 JUNCTION     0.92     9.88    13.41     0  04:47        9.80
  2276                 JUNCTION     2.83    31.25    34.27     0  05:19       18.44
  2280                 JUNCTION     7.15    38.55    39.82     0  09:46       26.28
  2299                 JUNCTION     1.49     8.81     9.91     0  09:06        7.35
  2302                 JUNCTION     3.38    24.33    25.18     0  04:47       24.28
  2321                 JUNCTION     0.05     0.09     1.39     0  04:22        0.09
  23211                JUNCTION     3.11    11.94    12.11     0  07:42       11.52
  23212                JUNCTION     3.78    25.22    26.57     0  08:42       18.80
  23213                JUNCTION     2.89    11.36    11.87     0  07:42       11.05
  23214                JUNCTION     2.64    12.17    12.35     0  04:25       11.65
  23215                JUNCTION     0.00     0.00     1.35     0  00:00        0.00
  23217                JUNCTION     3.76    25.09    26.43     0  08:42       18.45
  2324                 JUNCTION     1.32     6.83    19.53     0  08:34        6.23
  2332                 JUNCTION     2.21    22.14    39.21     0  05:49       17.87
  23321                JUNCTION     2.22    15.71    16.56     0  05:52        9.46
  2343                 JUNCTION     3.56    36.78    38.44     0  05:21       29.38
  2347                 JUNCTION     3.67    35.95    37.55     0  05:21       29.48
  23506                JUNCTION    15.54    27.99    30.09     0  09:46       27.95
  2356                 JUNCTION     8.97    37.30    43.21     0  05:06       34.56
  2360                 JUNCTION     5.47    16.57    18.17     0  04:16       16.46
  2361                 JUNCTION     5.06    16.02    18.37     0  09:43       15.98
  2364                 JUNCTION     1.37     6.74     8.53     0  08:54        6.57
  23648                JUNCTION    15.46    48.03    47.13     0  08:42       45.70
  23656                JUNCTION    15.42    47.96    47.06     0  08:42       45.71
  23712                JUNCTION     0.00     0.00    20.20     0  00:00        0.00
  2372                 JUNCTION     0.65     5.31     6.41     0  06:25        3.57
  23735                JUNCTION     0.00     0.00    19.73     0  00:00        0.00
  23736                JUNCTION     0.00     0.00     4.77     0  00:00        0.00
  23737                JUNCTION     0.00     0.00     1.37     0  00:00        0.00
  23738                JUNCTION     0.00     0.00     1.12     0  00:00        0.00
  23739                JUNCTION     0.00     0.00     0.48     0  00:00        0.00
  23740                JUNCTION     0.00     0.00     0.74     0  00:00        0.00
  23741                JUNCTION     0.00     0.00     0.32     0  00:00        0.00
  23745                JUNCTION     6.57    11.07    13.87     0  04:00       11.07
  23747                JUNCTION     0.03     0.06    28.64     0  08:13        0.06
  23768                JUNCTION     0.25     0.42    29.29     0  04:00        0.42
  2378                 JUNCTION     0.52    13.94    15.14     0  06:49       11.77
  23860                JUNCTION     5.54    28.90    30.00     0  04:48       27.14
  23862                JUNCTION     5.04    28.22    29.36     0  05:34       26.96
  2393                 JUNCTION     0.08     0.16     3.75     0  04:47        0.16
  2397                 JUNCTION    10.39    37.27    37.87     0  08:43       37.16
  2400                 JUNCTION     0.05     0.09     4.65     0  05:28        0.09
  2403                 JUNCTION    10.56    39.05    40.15     0  08:43       38.81
  2404                 JUNCTION    12.90    42.75    42.35     0  08:43       42.73
  24210                JUNCTION     0.02     0.08    91.91     0  04:46        0.08
  24211                JUNCTION     0.01     0.05    92.98     0  04:46        0.05
  2427                 JUNCTION     0.24    10.07    11.92     0  09:05        5.18
  2430                 JUNCTION     2.61     9.73     9.85     0  09:45        8.90
  2431                 JUNCTION     2.05    13.94    12.84     0  04:25        8.36
  2432                 JUNCTION     0.33    14.77    15.62     0  08:56        6.67
  2434                 JUNCTION     0.61    16.62    18.70     0  05:52       11.57
  2436                 JUNCTION    15.54    47.73    46.83     0  08:42       45.68
  2442                 JUNCTION     0.03     0.18     1.78     0  07:12        0.18
  2443                 JUNCTION     1.46    11.72    14.69     0  04:47       11.66
  2449                 JUNCTION    17.21    49.21    58.24     0  04:40       47.70
  2452                 JUNCTION     0.14     1.59     2.44     0  08:16        1.35
  2453                 JUNCTION     0.65     2.54     3.25     0  08:06        2.14
  2471                 JUNCTION     4.05    28.35    29.45     0  05:34       25.95
  2475                 JUNCTION     6.19    17.68    17.91     0  04:16       17.46
  2476                 JUNCTION     4.35     8.19     9.09     0  06:59        8.00
  2477                 JUNCTION     2.37     5.08     6.03     0  09:43        5.05
  2479                 JUNCTION     1.62     9.77    10.87     0  09:06        8.24
  2480                 JUNCTION     3.53    24.88    25.48     0  04:47       22.41
  2494                 JUNCTION     9.90    35.01    35.15     0  04:15       31.72
  2496                 JUNCTION     4.42    24.84    25.44     0  04:47       24.74
  2497                 JUNCTION     4.33    23.64    24.24     0  04:47       23.54
  2498                 JUNCTION     3.73    19.19    19.79     0  04:10       17.58
  2499                 JUNCTION     0.09     8.45     9.68     0  06:54        2.03
  2512                 JUNCTION    12.96    22.57    23.52     0  09:46       22.55
  2518                 JUNCTION     2.42    16.57    19.00     0  04:15       10.98
  2519                 JUNCTION     2.05    24.92    27.31     0  05:45       23.49
  2520                 JUNCTION     1.46    11.41    14.49     0  04:47       11.37
  2521                 JUNCTION     0.17     0.71     3.82     0  08:46        0.40
  2523                 JUNCTION     0.03     0.09     3.02     0  08:45        0.09
  2524                 JUNCTION    16.19    47.22    48.32     0  08:42       45.06
  2530                 JUNCTION     1.33    10.50    12.02     0  09:06        8.91
  2531                 JUNCTION     1.11    10.73    12.33     0  09:06        9.04
  2532                 JUNCTION     2.01    12.58    14.18     0  09:06       11.27
  2533                 JUNCTION     1.99    12.43    14.03     0  09:06       11.11
  2538                 JUNCTION     0.33     9.13    11.88     0  04:47        3.93
  2550                 JUNCTION     1.38     8.05     9.15     0  09:06        6.53
  2552                 JUNCTION     0.24     1.83     3.43     0  09:54        1.43
  2553                 JUNCTION     0.03     0.11     2.36     0  09:29        0.11
  2554                 JUNCTION     1.02     6.89     8.63     0  05:16        4.38
  2555                 JUNCTION     0.70     6.19     8.29     0  05:16        3.67
  2557                 JUNCTION     2.10    20.37    21.97     0  05:37       10.09
  2558                 JUNCTION     4.18    11.39    12.69     0  08:36       10.41
  2560                 JUNCTION     5.29    16.79    17.94     0  09:46       12.80
  2561                 JUNCTION     3.89    11.65    14.00     0  04:38        9.80
  2563                 JUNCTION     3.82    11.01    13.36     0  04:38        9.27
  2564                 JUNCTION     3.56    10.15    12.85     0  08:36        9.09
[...]
  3500                        0.01      2.91      0.01      2.64         0.01
  3502                        0.01      0.01      2.91      0.01         0.01
  3505                        0.01      0.12      0.01      0.01         0.01
  3506                        0.12      0.96      0.12      1.93         0.12
  3526                        1.33      1.33      2.15      0.01         0.01
  3527                        0.01      0.01      0.44      0.01         0.01
  3528                        0.01      0.01      0.01      0.01         0.01
  3609                        0.13      0.13      0.96      0.01         0.01
  3610                        0.01      0.01      0.80      0.01         0.01
  3622                        0.01      0.40      0.01      0.01         0.01
  3623                        0.01      0.01      0.40      0.01         0.01
  3669                        0.01      0.01      2.35      0.01         0.01
  3676                        0.01      2.19      0.01      0.78         0.01
  3677                        0.01      0.01      2.19      0.01         0.01
  3700                        0.01      0.01      0.01      0.56         0.01
  3804                        0.01      0.01      0.13      0.01         0.01
  3909                        0.72      2.54      0.72      4.61         0.72
  3910                        1.70      1.70      2.54      1.02         1.01
  3912                        0.01      0.01      6.00      0.01         0.01
  3929                        0.01      0.01      0.06      0.01         0.01
  3935                        0.01      0.01      3.15      0.01         0.01
  3998                        0.01      0.01      0.86      0.01         0.01
  4002                        1.00      1.00      6.00      0.01         0.01
  4020                        0.01      0.01      2.47      0.01         0.01
  4021                        0.01      0.01      0.01      0.40         0.01
  4022                        0.01      0.72      0.01      2.97         0.01
  4099                        0.01      0.01      5.47      0.01         0.01
  418                         0.01      0.01      1.71      0.01         0.01
  4230                        6.00      6.00      6.00      0.01         0.01
  4232                        0.22      0.22      2.34      0.01         0.01
  4233                        6.00      6.00      6.00      6.00         6.00
  4235                        0.01      0.01      0.22      0.01         0.01
  4244                        0.01      0.34      0.01      0.39         0.01
  4245                        0.01      0.01      0.34      0.01         0.01
  4419                        0.01      0.01      6.00      0.01         0.01
  4422                        6.00      6.00      6.00      0.01         0.01
  4439                        0.01      0.01      3.61      0.01         0.01
  4450                        0.46      2.17      0.46      3.73         0.45
  4451                        0.83      0.83      2.17      0.01         0.02
  4452                        0.01      0.01      0.83      0.01         0.01
  4455                        0.01      0.01      1.05      0.01         0.01
  4519                        5.26      5.53      5.30      4.89         4.60
  4520                        0.01      6.00      0.01      6.00         0.01
  4521                        6.00      6.00      6.00      4.33         4.34
  4522                        5.51      5.51      6.00      4.09         4.11
  4605                        0.01      0.01      0.02      0.01         0.01
  4657                        3.07      3.52      3.50      3.16         1.56
  4658                        0.46      0.46      3.52      0.01         0.01
  4659                        0.02      0.02      3.98      0.01         0.01
  478                         0.01      1.41      0.01      1.71         0.01
  479                         1.23      2.43      1.23      2.97         1.23
  4805                        2.61      2.61      3.91      0.10         0.02
  4806                        0.01      0.01      2.61      0.01         0.01
  4830                        3.62      3.64      4.09      0.01         0.03
  4880                        2.83      2.83      3.28      0.01         0.03
  4881                        1.57      1.57      2.83      0.01         0.02
  4947                        0.01      1.69      0.01      2.29         0.01
  4948                        0.01      0.01      1.69      0.01         0.01
  5016                        0.01      0.13      0.01      0.54         0.01
  5036                        0.01      0.01      0.92      0.01         0.01
  5037                        1.13      1.13      1.64      0.01         0.01
  5038                        2.15      2.15      3.18      0.01         0.01
  5039                        0.01      0.01      1.88      0.01         0.01
  6221                        0.01      0.01      0.01      0.01         0.01
  6222                        0.01      0.01      0.01      3.78         0.01
  6776                        0.01      0.01      0.65      0.01         0.01
  686                         0.01      0.01      0.01      0.17         0.01
  6933                        0.22      0.22      6.00      0.01         0.01
  6934                        6.00      6.00      6.00      0.01         0.12
  7088                        0.65      0.65      6.00      0.01         0.01
  7473                        3.35      3.35      6.00      0.01         0.01
  7474                        6.00      6.00      6.00      0.01         0.01
  7628                        6.00      6.00      6.00      0.01         0.01
  7629                        6.00      6.00      6.00      0.01         0.01
  7630                        6.00      6.00      6.00      0.01         0.01
  7631                        6.00      6.00      6.00      0.01         0.01
  7632                        0.01      0.01      6.00      0.01         0.01
  7633                        6.00      6.00      6.00      0.01         0.01
  7836                        6.00      6.00      6.00      6.00         0.01
  7860                        4.76      4.76      5.04      0.01         0.01
  7861                        5.04      5.04      5.05      3.24         2.91
  7862                        5.05      5.05      5.26      0.01         0.01
  7863                        5.34      5.34      5.93      0.01         0.01
  7864                        1.21      1.21      1.85      0.01         0.01
  7865                        2.21      2.21      2.61      0.01         0.01
  7866                        3.01      3.01      3.81      0.01         0.01
  7867                        3.87      3.87      4.96      0.01         0.01
  7980                        0.01      0.01      0.57      0.01         0.01
  8098                        6.00      6.00      6.00      0.01         0.01
  8099                        6.00      6.00      6.00      0.01         0.01
  8100                        6.00      6.00      6.00      0.01         0.01
  8101                        6.00      6.00      6.00      0.01         0.01
  8105                        6.00      6.00      6.00      0.01         0.01
  8106                        0.34      0.34      0.87      0.01         0.01
  8181                        0.25      0.25      1.09      0.01         0.01
  8182                        1.97      1.97      2.34      0.01         0.09
  8201                        0.01      0.01      0.31      0.01         0.01
  8257                        0.80      0.80      1.98      0.01         0.01
  8258                        3.03      3.04      3.22      0.01         0.03
  8259                        3.22      3.22      3.69      0.01         0.12
  8264                        0.01      0.01      1.15      0.01         0.01
  8265                        1.50      1.50      2.73      0.01         0.01
  8348                        2.99      2.99      3.15      0.01         0.01
  8358                        6.00      6.00      6.00      0.01         0.01
  8359                        6.00      6.00      6.00      0.01         0.01
  8438                        0.45      0.45      1.11      0.01         0.01
  8452                        0.18      0.18      1.03      0.01         0.01
  8454                        0.01      0.01      0.52      0.01         0.01
  8456                        0.52      0.52      0.74      0.01         0.01
  8457                        0.74      0.74      6.00      0.01         0.01
  8458                        0.12      0.12      0.56      0.01         0.02
  8459                        0.18      0.18      1.91      0.01         0.01
  8845                        0.01      0.01      6.00      0.01         0.01
  9397                        0.01      0.01      6.00      0.01         0.01
  9398                        6.00      6.00      6.00      0.01         0.01
  9399                        6.00      6.00      6.00      0.01         0.01
  9400                        6.00      6.00      6.00      0.01         0.01
  9401                        6.00      6.00      6.00      0.01         0.01
  9402                        6.00      6.00      6.00      0.01         0.01
  9403                        6.00      6.00      6.00      6.00         0.01
  9535                        6.00      6.00      6.00      6.00         0.01
  98                          0.01      0.01      3.47      0.01         0.01
  
  
  ***************
  Pumping Summary
  ***************
  
  ---------------------------------------------------------------------------------------------------------
                                                  Min       Avg       Max     Total     Power    % Time Off
                        Percent   Number of      Flow      Flow      Flow    Volume     Usage    Pump Curve
  Pump                 Utilized   Start-Ups       LPS       LPS       LPS  10^6 ltr     Kw-hr    Low   High
  ---------------------------------------------------------------------------------------------------------
  SPS2000                 28.43          77      0.00    263.48    340.00     2.703    280.69    0.0    0.7
  SPS2001                 47.89          40      0.00     34.46     41.62     0.595     25.30    0.0    0.0
  SPS2002                 40.53          35      0.00     24.37     34.40     0.355      5.33    0.0    0.0
  SPS2003                 26.17          28      0.00     81.26    100.00     0.768     26.32    0.0    3.5
  SPS2004                 15.32           7      0.00     23.25     26.20     0.128      1.89    0.0    0.0
  SPS2005                 60.00           0      0.00     44.27     64.28     0.952     25.01    0.0    0.0
  SPS2006                 32.25          75      0.00     28.81     43.00     0.335     12.61    0.0    0.9
  SPS2007                 10.77          30      0.00      9.38     10.32     0.036      0.38    0.0    0.0
  SPS2008                 19.17          69      0.00     20.45     25.00     0.141      1.64    0.0    0.0
  SPS2009                 20.64         123      0.00     58.23     80.00     0.433     15.00    0.0    6.9
  SPS2010                  0.69           4      0.00     21.17     23.82     0.005      0.04    0.0    0.0
  SPS2011                 29.92          27      0.00     47.50     47.50     0.512     18.35    0.0  100.0
  SPS2012                 30.45          27      0.00     26.35     27.52     0.289      9.20    0.0    0.0
  SPS2013                 12.74          26      0.00     27.94     40.00     0.128      2.74    0.0    1.5
  SPS2014                 23.47          59      0.00     40.47     80.00     0.343     17.47    0.0    0.6
  SPS2015                 46.34          50      0.00     13.81     50.00     0.230     10.71    0.0    1.7
  SPS2016                 45.67          35      0.00     20.07     40.00     0.330      8.41    0.0    0.1
  SPS2017                 20.32          29      0.00     34.92     50.00     0.255      8.12    0.0    0.9
  SPS2018                 47.30          20      0.00    187.93    300.00     3.194    268.96    0.0    1.5
  SPS2019                 35.58          46      0.00     20.21     23.51     0.259      3.11    0.0    0.0
  SPS2020                 33.83          29      0.00     28.82     38.89     0.350      7.99    0.0   10.8
  SPS2021                 12.32          13      0.00     21.26     25.00     0.094      1.04    0.0    1.4
  SPS2022                 15.90          22      0.00      7.34     24.21     0.042      0.72    0.0    0.0
  SPS2023                 13.95          31      0.00     10.40     22.34     0.051      0.68    0.0    0.0
  SPS2024                  9.61          32      0.00     13.50     21.00     0.046      0.36    0.0    0.0
  SPS2025                 27.41          45      0.00     12.01     30.79     0.119      2.40    0.0    0.0
  SPS2026                 57.78          12      0.00     37.96     39.01     0.789     56.51    0.0    0.0
  SPS2027                  8.86          16      0.00      8.42      9.16     0.027      1.10    0.0    0.0
  SPS2028                 26.61          40      0.00     20.63     21.62     0.198      7.03    0.0    0.0
  SPS2029                 30.39          17      0.00      7.70     27.24     0.084      1.59    0.0    0.0
  SPS2030                 27.71          24      0.00     16.74     28.21     0.167     16.82    0.0    0.0
  SPS2031                 16.79          42      0.00     18.58     40.61     0.112      2.74    0.0    0.0
  SPS2032                 40.02          22      0.00     31.77     70.00     0.458     25.48    0.0    0.2
  SPS2033_2               42.30          12      0.00    186.18    280.00     2.838    305.68    0.0    0.2
  SPS2033_3                0.00           0      0.00      0.00      0.00     0.000      0.00    0.0    0.0
  SPS2034                 60.00           0      0.00      4.31      4.36     0.093      2.64    0.0    0.0
  SPS2035                 60.00           0      0.00      6.25      6.25     0.135     11.31    0.0    0.0
  SPS2036                 27.62          33      0.00     15.67     15.81     0.156      9.72    0.0    0.0
  SPS2037                 60.00           0      0.00     20.72     21.24     0.448     34.12    0.0    0.0
  SPS2038                 47.36          26      0.00     69.63     90.32     1.188     53.54    0.0    0.0
  SPS2039                  5.82           7      0.00      3.29      3.31     0.007      0.31    0.0    0.0
  SPS2040                 20.31          10      0.00      4.31      4.33     0.032      2.53    0.0    0.0
  SPS2041                 28.71          83      0.00     38.85     50.00     0.401     12.07    0.0   25.7
  SPS2042                  5.67          14      0.00      2.00      2.00     0.004      0.06    0.0    0.0
  SPS2043                 29.74          11      0.00      6.80      7.24     0.073      7.56    0.0    0.0
  SPS2044                 31.84           6      0.00      9.95     10.04     0.114     23.69    0.0    0.1
  SPS2045                 10.62          15      0.00      7.92      8.00     0.030      0.60    0.0   42.6
  SPS2046                 60.00           0      0.00     29.20     29.20     0.631     64.03    0.0    0.0
  SPS2047                  7.76          11      0.00      4.29      4.36     0.012      0.28    0.0    0.0
  SPS2048                  4.99           7      0.00     14.68     15.11     0.026      0.97    0.0    0.0
  SPS2050                 20.86           7      0.00      6.19      6.53     0.047      4.23    0.0    0.0
  SPS2053                 21.04          14      0.00      5.88      6.26     0.044      2.27    0.0    0.0
  SPS3001                 40.24          31      0.00    100.19    125.00     1.451     63.25    0.0    0.0
  SPS3002                  7.37          13      0.00      6.89      7.30     0.018      1.45    0.0    0.0
  SPS3003                  8.84          25      0.00     18.45     19.23     0.059      5.99    0.0    0.0
  SPS3004                 39.52          59      0.00     53.71     55.97     0.764     62.54    0.0    0.0
  SPS3005                 35.96          26      0.00     28.02     28.83     0.363     35.75    0.0    0.0
  SPS3006                 52.87          14      0.00    139.66    140.00     2.659    199.11    0.0   87.8
  SPS3007                  7.97          34      0.00     24.93     35.00     0.072      1.00    0.0   10.1
  SPS3008                 26.40          60      0.00     28.70     68.12     0.273     21.09    0.0    0.0
  SPS3009                 21.74         129      0.00     27.88     70.00     0.219     10.04    0.0    0.1
  SPS3010                  6.94          37      0.00     10.00     10.00     0.025      0.32    0.0    0.0
  SPS3011                 20.97          22      0.00     58.96     80.00     0.445     22.97    0.0    1.8
  SPS3012                 25.82          26      0.00     35.67     40.00     0.332     22.90    0.0   13.1
  SPS3013                  8.56          14      0.00     14.04     32.95     0.043      0.81    0.0    0.0
  SPS3015                 19.06          36      0.00     41.01     50.00     0.282     51.15    0.0    9.2
  SPS3016                 28.86          40      0.00     15.00     16.55     0.156      2.54    0.0    0.0
  SPS3017                 29.53          29      0.00     14.86     30.00     0.157      3.16    0.0   14.1
  SPS3018                 60.00           0      0.00     99.21    100.00     2.143    198.99    0.0   29.2
  SPS3019                 40.33          64      0.00    217.70    280.00     3.165    132.79    0.0    4.5
  SPS3020                 42.17          34      0.00     30.01     30.70     0.456     21.03    0.0    0.0
  SPS3021                 29.59          33      0.00     80.46    110.00     0.857     54.60    0.0    0.9
  SPS3022                 24.67          23      0.00     57.82     59.85     0.514     18.65    0.0    0.0
  SPS3023                 17.76          65      0.00     40.84     43.39     0.261      4.29    0.0    0.0
  SPS3024                  2.79           5      0.00      7.66      7.93     0.008      0.19    0.0    0.0
  SPS3025                 27.54          13      0.00      5.77      7.00     0.057      2.77    0.0    0.5
  SPS3026                 17.31          12      0.00     24.46     25.91     0.152      2.51    0.0    0.0
  SPS3027                 36.75          24      0.00     23.88     58.02     0.316      9.41    0.0    0.0
  SPS3028-B               60.00           0      0.00    299.89    300.00     6.478    226.02    0.0   99.8
  SPS3028-C                8.55          17      0.00    299.18    300.00     0.921     35.95    0.0   98.3
  SPS3029                 26.25          46      0.00     23.30     40.00     0.220     13.66    0.0    0.0
  SPS3030                 60.00           0      0.00     50.30     56.24     1.085     50.15    0.0    0.0
  SPS3031                 34.48          43      0.00     56.20    100.00     0.697     38.81    0.0    4.0
  SPS3033                 45.57          21      0.00     61.03     70.00     1.002     61.25    0.0   15.3
  SPS3034                 60.00           0      0.00      7.00      7.00     0.151      8.76    0.0  100.0
  SPS3035                 36.80          16      0.00     14.81     35.00     0.196      6.47    0.0    3.9
  SPS3036                 32.39          15      0.00     11.04     27.32     0.129      2.91    0.0    0.0
  SPS3038                 60.00           0      0.00      3.74      5.05     0.081      4.51    0.0    0.0
  SPS3041                 14.84          20      0.00     15.99     25.31     0.086      5.82    0.0    0.0
  SPS3042                  0.00           0      0.00      0.00      0.00     0.000      0.00    0.0    0.0
  

  Analysis begun on:  Fri Nov 29 10:46:09 2019
  Analysis ended on:  Fri Nov 29 10:47:05 2019
  Total elapsed time: 00:00:56