
  EPA STORM WATER MANAGEMENT MODEL - VERSION 5.1 (Build 5.1.013)
  --------------------------------------------------------------

  WARNING 03: negative offset ignored for Link 1576
  WARNING 03: negative offset ignored for Link 1594
  WARNING 03: negative offset ignored for Link 170-OVERFLOW
  WARNING 03: negative offset ignored for Link 170-OVERFLOW
  WARNING 03: negative offset ignored for Link 1731
  WARNING 03: negative offset ignored for Link 1755
  WARNING 03: negative offset ignored for Link 1957
  WARNING 03: negative offset ignored for Link 2274
  WARNING 03: negative offset ignored for Link 2276
  WARNING 03: negative offset ignored for Link 2277
  WARNING 03: negative offset ignored for Link 2277
  WARNING 03: negative offset ignored for Link 2282
  WARNING 03: negative offset ignored for Link CDT-129
  WARNING 08: elevation drop exceeds length for Conduit CDT-129
  WARNING 03: negative offset ignored for Link CDT-39
  WARNING 03: negative offset ignored for Link CDT-73
  WARNING 03: negative offset ignored for Link CDT-83
  WARNING 03: negative offset ignored for Link CDT-87
  WARNING 10: crest elevation is below downstream invert for regulator Link I-90-4_ORIFICE
  WARNING 10: crest elevation is below downstream invert for regulator Link R2-ORIFICE
  WARNING 10: crest elevation is below downstream invert for regulator Link R4-ORIFICE-1
  WARNING 10: crest elevation is below downstream invert for regulator Link R4-ORIFICE-3
  WARNING 10: crest elevation is below downstream invert for regulator Link R5-ORIFICE
  WARNING 02: maximum depth increased for Node 1029
  WARNING 02: maximum depth increased for Node 1049
  WARNING 02: maximum depth increased for Node 1092
  WARNING 02: maximum depth increased for Node 1110
  WARNING 02: maximum depth increased for Node 1170
  WARNING 02: maximum depth increased for Node 1762
  WARNING 02: maximum depth increased for Node 1861
  WARNING 02: maximum depth increased for Node 1875
  WARNING 02: maximum depth increased for Node 1893
  WARNING 02: maximum depth increased for Node 1923
  WARNING 02: maximum depth increased for Node 1954
  WARNING 02: maximum depth increased for Node 2256
  WARNING 02: maximum depth increased for Node 2347
  WARNING 02: maximum depth increased for Node 592
  WARNING 02: maximum depth increased for Node 868
  WARNING 02: maximum depth increased for Node 869
  WARNING 02: maximum depth increased for Node 879
  WARNING 02: maximum depth increased for Node 896
  WARNING 02: maximum depth increased for Node JCT-10
  WARNING 02: maximum depth increased for Node JCT-18
  WARNING 02: maximum depth increased for Node JCT-26
  WARNING 02: maximum depth increased for Node JCT-48
  WARNING 02: maximum depth increased for Node JCT-62
  WARNING 02: maximum depth increased for Node LP-2380
  WARNING 02: maximum depth increased for Node OS-2168
  WARNING 02: maximum depth increased for Node 1088-2
  WARNING 02: maximum depth increased for Node 1103
  WARNING 02: maximum depth increased for Node 1153
  WARNING 02: maximum depth increased for Node 1759
  WARNING 02: maximum depth increased for Node 1760
  WARNING 02: maximum depth increased for Node 1763
  WARNING 02: maximum depth increased for Node 1765
  WARNING 02: maximum depth increased for Node 180
  WARNING 02: maximum depth increased for Node 1805
  WARNING 02: maximum depth increased for Node 1818
  WARNING 02: maximum depth increased for Node 1895
  WARNING 02: maximum depth increased for Node 1952
  WARNING 02: maximum depth increased for Node 2428
  WARNING 02: maximum depth increased for Node 399
  WARNING 02: maximum depth increased for Node 416
  WARNING 02: maximum depth increased for Node 589
  WARNING 02: maximum depth increased for Node 851
  WARNING 02: maximum depth increased for Node 860
  WARNING 02: maximum depth increased for Node 861
  WARNING 02: maximum depth increased for Node 870
  WARNING 02: maximum depth increased for Node 895
  WARNING 02: maximum depth increased for Node DIV-10
  WARNING 02: maximum depth increased for Node JCT-24
  
  *********************************************************
  NOTE: The summary statistics displayed in this report are
  based on results found at every computational time step,  
  not just on results from each reporting time step.
  *********************************************************
  
  ****************
  Analysis Options
  ****************
  Flow Units ............... CFS
  Process Models:
    Rainfall/Runoff ........ YES
    RDII ................... NO
    Snowmelt ............... NO
    Groundwater ............ NO
    Flow Routing ........... YES
    Ponding Allowed ........ NO
    Water Quality .......... NO
  Infiltration Method ...... CURVE_NUMBER
  Flow Routing Method ...... KINWAVE
  Starting Date ............ 01/01/2002 00:00:00
  Ending Date .............. 01/02/2002 00:00:00
  Antecedent Dry Days ...... 5.0
  Report Time Step ......... 00:05:00
  Wet Time Step ............ 00:05:00
  Dry Time Step ............ 00:05:00
  Routing Time Step ........ 5.00 sec
  
  
  **************************        Volume         Depth
  Runoff Quantity Continuity     acre-feet        inches
  **************************     ---------       -------
  Total Precipitation ......         0.000         0.000
  Evaporation Loss .........         0.000         0.000
  Infiltration Loss ........         0.000         0.000
  Surface Runoff ...........         0.000         0.000
  Final Storage ............         0.000         0.000
  Continuity Error (%) .....         0.000
  
  
  **************************        Volume        Volume
  Flow Routing Continuity        acre-feet      10^6 gal
  **************************     ---------     ---------
  Dry Weather Inflow .......         0.000         0.000
  Wet Weather Inflow .......         0.000         0.000
  Groundwater Inflow .......         0.000         0.000
  RDII Inflow ..............         0.000         0.000
  External Inflow ..........         0.000         0.000
  External Outflow .........         0.000         0.000
  Flooding Loss ............         0.000         0.000
  Evaporation Loss .........         0.000         0.000
  Exfiltration Loss ........         0.000         0.000
  Initial Stored Volume ....         0.000         0.000
  Final Stored Volume ......         0.000         0.000
  Continuity Error (%) .....         0.000
  
  
  ********************************
  Highest Flow Instability Indexes
  ********************************
  All links are stable.
  
  
  ***************************
  Subcatchment Runoff Summary
  ***************************
  
  ------------------------------------------------------------------------------------------------------------------------------
                            Total      Total      Total      Total     Imperv       Perv      Total       Total     Peak  Runoff
                           Precip      Runon       Evap      Infil     Runoff     Runoff     Runoff      Runoff   Runoff   Coeff
  Subcatchment                 in         in         in         in         in         in         in    10^6 gal      CFS
  ------------------------------------------------------------------------------------------------------------------------------
  0                          0.00       0.00       0.00       0.00       0.00       0.00       0.00        0.00     0.00   0.000
  1                          0.00       0.00       0.00       0.00       0.00       0.00       0.00        0.00     0.00   0.000
  10                         0.00       0.00       0.00       0.00       0.00       0.00       0.00        0.00     0.00   0.000
  11                         0.00       0.00       0.00       0.00       0.00       0.00       0.00        0.00     0.00   0.000
  12                         0.00       0.00       0.00       0.00       0.00       0.00       0.00        0.00     0.00   0.000
  13                         0.00       0.00       0.00       0.00       0.00       0.00       0.00        0.00     0.00   0.000
  14                         0.00       0.00       0.00       0.00       0.00       0.00       0.00        0.00     0.00   0.000
  15                         0.00       0.00       0.00       0.00       0.00       0.00       0.00        0.00     0.00   0.000
  16                         0.00       0.00       0.00       0.00       0.00       0.00       0.00        0.00     0.00   0.000
  17                         0.00       0.00       0.00       0.00       0.00       0.00       0.00        0.00     0.00   0.000
  18                         0.00       0.00       0.00       0.00       0.00       0.00       0.00        0.00     0.00   0.000
  19                         0.00       0.00       0.00       0.00       0.00       0.00       0.00        0.00     0.00   0.000
  2                          0.00       0.00       0.00       0.00       0.00       0.00       0.00        0.00     0.00   0.000
  20                         0.00       0.00       0.00       0.00       0.00       0.00       0.00        0.00     0.00   0.000
  21                         0.00       0.00       0.00       0.00       0.00       0.00       0.00        0.00     0.00   0.000
  22                         0.00       0.00       0.00       0.00       0.00       0.00       0.00        0.00     0.00   0.000
  23                         0.00       0.00       0.00       0.00       0.00       0.00       0.00        0.00     0.00   0.000
  24                         0.00       0.00       0.00       0.00       0.00       0.00       0.00        0.00     0.00   0.000
  25                         0.00       0.00       0.00       0.00       0.00       0.00       0.00        0.00     0.00   0.000
  26                         0.00       0.00       0.00       0.00       0.00       0.00       0.00        0.00     0.00   0.000
  27                         0.00       0.00       0.00       0.00       0.00       0.00       0.00        0.00     0.00   0.000
  3                          0.00       0.00       0.00       0.00       0.00       0.00       0.00        0.00     0.00   0.000
  4                          0.00       0.00       0.00       0.00       0.00       0.00       0.00        0.00     0.00   0.000
  5                          0.00       0.00       0.00       0.00       0.00       0.00       0.00        0.00     0.00   0.000
  6                          0.00       0.00       0.00       0.00       0.00       0.00       0.00        0.00     0.00   0.000
  7                          0.00       0.00       0.00       0.00       0.00       0.00       0.00        0.00     0.00   0.000
  8                          0.00       0.00       0.00       0.00       0.00       0.00       0.00        0.00     0.00   0.000
  9                          0.00       0.00       0.00       0.00       0.00       0.00       0.00        0.00     0.00   0.000
  SUB-16                     0.00       0.00       0.00       0.00       0.00       0.00       0.00        0.00     0.00   0.000
  
  
  ******************
  Node Depth Summary
  ******************
  
  ---------------------------------------------------------------------------------
                                 Average  Maximum  Maximum  Time of Max    Reported
                                   Depth    Depth      HGL   Occurrence   Max Depth
  Node                 Type         Feet     Feet     Feet  days hr:min        Feet
  ---------------------------------------------------------------------------------
  1029                 JUNCTION  -nan(ind)     0.00  4521.93     0  00:00        0.00
  1035                 JUNCTION  -nan(ind)     0.00  4520.46     0  00:00        0.00
  1037                 JUNCTION  -nan(ind)     0.00  4521.22     0  00:00        0.00
  1039                 JUNCTION  -nan(ind)     0.00  4520.57     0  00:00        0.00
  1049                 JUNCTION  -nan(ind)     0.00  4558.00     0  00:00        0.00
  1050                 JUNCTION  -nan(ind)     0.00  4556.00     0  00:00        0.00
  1052                 JUNCTION  -nan(ind)     0.00  4556.40     0  00:00        0.00
  1063                 JUNCTION  -nan(ind)     0.00  4519.61     0  00:00        0.00
  1067                 JUNCTION  -nan(ind)     0.00  4562.00     0  00:00        0.00
  1069                 JUNCTION  -nan(ind)     0.00  4543.80     0  00:00        0.00
  1071                 JUNCTION  -nan(ind)     0.00  4519.51     0  00:00        0.00
  1092                 JUNCTION  -nan(ind)     0.00  4521.25     0  00:00        0.00
  1101                 JUNCTION  -nan(ind)     0.00  4519.19     0  00:00        0.00
  1110                 JUNCTION  -nan(ind)     0.00  4520.34     0  00:00        0.00
  1131                 JUNCTION  -nan(ind)     0.00  4518.91     0  00:00        0.00
  1170                 JUNCTION  -nan(ind)     0.00  4587.13     0  00:00        0.00
  1410                 JUNCTION  -nan(ind)     0.00  4510.23     0  00:00        0.00
  1414                 JUNCTION  -nan(ind)     0.00  4513.30     0  00:00        0.00
  1762                 JUNCTION  -nan(ind)     0.00  4582.10     0  00:00        0.00
  1764                 JUNCTION  -nan(ind)     0.00  4573.06     0  00:00        0.00
  1766                 JUNCTION  -nan(ind)     0.00  4566.59     0  00:00        0.00
  1767                 JUNCTION  -nan(ind)     0.00  4563.35     0  00:00        0.00
  1792                 JUNCTION  -nan(ind)     0.00  4502.98     0  00:00        0.00
  1800                 JUNCTION  -nan(ind)     0.00  4518.20     0  00:00        0.00
  1801                 JUNCTION  -nan(ind)     0.00  4517.71     0  00:00        0.00
  1804                 JUNCTION  -nan(ind)     0.00  4522.27     0  00:00        0.00
  1806                 JUNCTION  -nan(ind)     0.00  4523.15     0  00:00        0.00
  1808                 JUNCTION  -nan(ind)     0.00  4524.76     0  00:00        0.00
  1810                 JUNCTION  -nan(ind)     0.00  4525.94     0  00:00        0.00
  1846                 JUNCTION  -nan(ind)     0.00  4532.99     0  00:00        0.00
  1847                 JUNCTION  -nan(ind)     0.00  4539.00     0  00:00        0.00
  1861                 JUNCTION  -nan(ind)     0.00  4518.30     0  00:00        0.00
  1866                 JUNCTION  -nan(ind)     0.00  4514.00     0  00:00        0.00
  1867                 JUNCTION  -nan(ind)     0.00  4513.50     0  00:00        0.00
  1875                 JUNCTION  -nan(ind)     0.00  4534.44     0  00:00        0.00
  1876                 JUNCTION  -nan(ind)     0.00  4546.64     0  00:00        0.00
  1884                 JUNCTION  -nan(ind)     0.00  4536.50     0  00:00        0.00
  1893                 JUNCTION  -nan(ind)     0.00  4588.92     0  00:00        0.00
  1894                 JUNCTION  -nan(ind)     0.00  4583.55     0  00:00        0.00
  1896                 JUNCTION  -nan(ind)     0.00  4519.30     0  00:00        0.00
  1898                 JUNCTION  -nan(ind)     0.00  4518.79     0  00:00        0.00
  1923                 JUNCTION  -nan(ind)     0.00  4613.68     0  00:00        0.00
  1954                 JUNCTION  -nan(ind)     0.00  4524.66     0  00:00        0.00
  1965                 JUNCTION  -nan(ind)     0.00  4598.15     0  00:00        0.00
  2069                 JUNCTION  -nan(ind)     0.00  4518.80     0  00:00        0.00
  2076                 JUNCTION  -nan(ind)     0.00  4518.30     0  00:00        0.00
  2087                 JUNCTION  -nan(ind)     0.00  4519.00     0  00:00        0.00
  2169                 JUNCTION  -nan(ind)     0.00  4518.00     0  00:00        0.00
  2171                 JUNCTION  -nan(ind)     0.00  4517.50     0  00:00        0.00
  2242                 JUNCTION  -nan(ind)     0.00  4534.00     0  00:00        0.00
  2255                 JUNCTION  -nan(ind)     0.00  4555.46     0  00:00        0.00
  2256                 JUNCTION  -nan(ind)     0.00  4563.00     0  00:00        0.00
  2266                 JUNCTION  -nan(ind)     0.00  4549.30     0  00:00        0.00
  2339                 JUNCTION  -nan(ind)     0.00  4592.00     0  00:00        0.00
  2347                 JUNCTION  -nan(ind)     0.00  4600.00     0  00:00        0.00
  2349                 JUNCTION  -nan(ind)     0.00  4590.00     0  00:00        0.00
  2358                 JUNCTION  -nan(ind)     0.00  4552.00     0  00:00        0.00
  2369                 JUNCTION  -nan(ind)     0.00  4532.75     0  00:00        0.00
  2370                 JUNCTION  -nan(ind)     0.00  4531.00     0  00:00        0.00
  238                  JUNCTION  -nan(ind)     0.00  4580.21     0  00:00        0.00
  2381                 JUNCTION  -nan(ind)     0.00  4523.00     0  00:00        0.00
  2382                 JUNCTION  -nan(ind)     0.00  4518.80     0  00:00        0.00
  243                  JUNCTION  -nan(ind)     0.00  4587.23     0  00:00        0.00
  272                  JUNCTION  -nan(ind)     0.00  4522.61     0  00:00        0.00
  341                  JUNCTION  -nan(ind)     0.00  4600.14     0  00:00        0.00
  375                  JUNCTION  -nan(ind)     0.00  4541.99     0  00:00        0.00
  384                  JUNCTION  -nan(ind)     0.00  4518.29     0  00:00        0.00
  385                  JUNCTION  -nan(ind)     0.00  4518.77     0  00:00        0.00
  386                  JUNCTION  -nan(ind)     0.00  4519.51     0  00:00        0.00
  387                  JUNCTION  -nan(ind)     0.00  4519.71     0  00:00        0.00
  392                  JUNCTION  -nan(ind)     0.00  4520.60     0  00:00        0.00
  439                  JUNCTION  -nan(ind)     0.00  4519.49     0  00:00        0.00
  562                  JUNCTION  -nan(ind)     0.00  4572.54     0  00:00        0.00
  592                  JUNCTION  -nan(ind)     0.00  4520.37     0  00:00        0.00
  597                  JUNCTION  -nan(ind)     0.00  4518.45     0  00:00        0.00
  662                  JUNCTION  -nan(ind)     0.00  4547.13     0  00:00        0.00
  676                  JUNCTION  -nan(ind)     0.00  4575.36     0  00:00        0.00
  787                  JUNCTION  -nan(ind)     0.00  4626.43     0  00:00        0.00
  788                  JUNCTION  -nan(ind)     0.00  4626.20     0  00:00        0.00
  791                  JUNCTION  -nan(ind)     0.00  4624.29     0  00:00        0.00
  853                  JUNCTION  -nan(ind)     0.00  4565.38     0  00:00        0.00
  854                  JUNCTION  -nan(ind)     0.00  4570.10     0  00:00        0.00
  855                  JUNCTION  -nan(ind)     0.00  4572.04     0  00:00        0.00
  857                  JUNCTION  -nan(ind)     0.00  4552.05     0  00:00        0.00
  858                  JUNCTION  -nan(ind)     0.00  4538.35     0  00:00        0.00
  859                  JUNCTION  -nan(ind)     0.00  4587.29     0  00:00        0.00
  862                  JUNCTION  -nan(ind)     0.00  4548.30     0  00:00        0.00
  863                  JUNCTION  -nan(ind)     0.00  4549.41     0  00:00        0.00
  864                  JUNCTION  -nan(ind)     0.00  4553.84     0  00:00        0.00
  865                  JUNCTION  -nan(ind)     0.00  4560.26     0  00:00        0.00
  866                  JUNCTION  -nan(ind)     0.00  4576.74     0  00:00        0.00
  867                  JUNCTION  -nan(ind)     0.00  4540.24     0  00:00        0.00
  868                  JUNCTION  -nan(ind)     0.00  4538.05     0  00:00        0.00
  869                  JUNCTION  -nan(ind)     0.00  4540.01     0  00:00        0.00
  879                  JUNCTION  -nan(ind)     0.00  4536.20     0  00:00        0.00
  880                  JUNCTION  -nan(ind)     0.00  4568.56     0  00:00        0.00
  882                  JUNCTION  -nan(ind)     0.00  4543.02     0  00:00        0.00
  883                  JUNCTION  -nan(ind)     0.00  4541.02     0  00:00        0.00
  884                  JUNCTION  -nan(ind)     0.00  4546.30     0  00:00        0.00
  885                  JUNCTION  -nan(ind)     0.00  4546.90     0  00:00        0.00
  886                  JUNCTION  -nan(ind)     0.00  4548.00     0  00:00        0.00
  887                  JUNCTION  -nan(ind)     0.00  4544.80     0  00:00        0.00
  888                  JUNCTION  -nan(ind)     0.00  4556.23     0  00:00        0.00
  889                  JUNCTION  -nan(ind)     0.00  4550.94     0  00:00        0.00
  896                  JUNCTION  -nan(ind)     0.00  4603.00     0  00:00        0.00
  901                  JUNCTION  -nan(ind)     0.00  4622.31     0  00:00        0.00
  902                  JUNCTION  -nan(ind)     0.00  4621.36     0  00:00        0.00
  903                  JUNCTION  -nan(ind)     0.00  4620.10     0  00:00        0.00
  904                  JUNCTION  -nan(ind)     0.00  4615.60     0  00:00        0.00
  906                  JUNCTION  -nan(ind)     0.00  4558.70     0  00:00        0.00
  907                  JUNCTION  -nan(ind)     0.00  4571.56     0  00:00        0.00
  908                  JUNCTION  -nan(ind)     0.00  4557.41     0  00:00        0.00
  909                  JUNCTION  -nan(ind)     0.00  4560.91     0  00:00        0.00
  JCT-10               JUNCTION  -nan(ind)     0.00  4528.80     0  00:00        0.00
  JCT-12               JUNCTION  -nan(ind)     0.00  4550.02     0  00:00        0.00
  JCT-16               JUNCTION  -nan(ind)     0.00  4559.83     0  00:00        0.00
  JCT-18               JUNCTION  -nan(ind)     0.00  4538.00     0  00:00        0.00
  JCT-26               JUNCTION  -nan(ind)     0.00  4596.80     0  00:00        0.00
  JCT-28               JUNCTION  -nan(ind)     0.00  4588.70     0  00:00        0.00
  JCT-30               JUNCTION  -nan(ind)     0.00  4572.87     0  00:00        0.00
  JCT-32               JUNCTION  -nan(ind)     0.00  4579.94     0  00:00        0.00
  JCT-34               JUNCTION  -nan(ind)     0.00  4518.99     0  00:00        0.00
  JCT-36               JUNCTION  -nan(ind)     0.00  4619.00     0  00:00        0.00
  JCT-38               JUNCTION  -nan(ind)     0.00  4598.00     0  00:00        0.00
  JCT-40               JUNCTION  -nan(ind)     0.00  4617.00     0  00:00        0.00
  JCT-42               JUNCTION  -nan(ind)     0.00  4530.50     0  00:00        0.00
  JCT-46               JUNCTION  -nan(ind)     0.00  4599.00     0  00:00        0.00
  JCT-48               JUNCTION  -nan(ind)     0.00  4616.65     0  00:00        0.00
  JCT-60               JUNCTION  -nan(ind)     0.00     0.00     0  00:00        0.00
  JCT-62               JUNCTION  -nan(ind)     0.00  4552.00     0  00:00        0.00
  LP-2380              JUNCTION  -nan(ind)     0.00  4521.00     0  00:00        0.00
  OS-2168              JUNCTION  -nan(ind)     0.00  4507.00     0  00:00        0.00
  1821                 OUTFALL   -nan(ind)     0.00  4502.00     0  00:00        0.00
  1088-2               DIVIDER   -nan(ind)     0.00  4519.80     0  00:00        0.00
  1103                 DIVIDER   -nan(ind)     0.00  4542.13     0  00:00        0.00
  1153                 DIVIDER   -nan(ind)     0.00  4537.36     0  00:00        0.00
  1759                 DIVIDER   -nan(ind)     0.00  4585.46     0  00:00        0.00
  1760                 DIVIDER   -nan(ind)     0.00  4585.30     0  00:00        0.00
  1763                 DIVIDER   -nan(ind)     0.00  4580.96     0  00:00        0.00
  1765                 DIVIDER   -nan(ind)     0.00  4571.73     0  00:00        0.00
  180                  DIVIDER   -nan(ind)     0.00  4541.91     0  00:00        0.00
  1805                 DIVIDER   -nan(ind)     0.00  4522.79     0  00:00        0.00
  1807                 DIVIDER   -nan(ind)     0.00  4524.37     0  00:00        0.00
  1809                 DIVIDER   -nan(ind)     0.00  4524.78     0  00:00        0.00
  1818                 DIVIDER   -nan(ind)     0.00  4570.87     0  00:00        0.00
  1895                 DIVIDER   -nan(ind)     0.00  4520.14     0  00:00        0.00
  1897                 DIVIDER   -nan(ind)     0.00  4519.22     0  00:00        0.00
  1952                 DIVIDER   -nan(ind)     0.00  4588.82     0  00:00        0.00
  1955                 DIVIDER   -nan(ind)     0.00  4524.64     0  00:00        0.00
  2428                 DIVIDER   -nan(ind)     0.00  4551.84     0  00:00        0.00
  399                  DIVIDER   -nan(ind)     0.00  4603.32     0  00:00        0.00
  416                  DIVIDER   -nan(ind)     0.00  4603.06     0  00:00        0.00
  589                  DIVIDER   -nan(ind)     0.00  4523.50     0  00:00        0.00
  792                  DIVIDER   -nan(ind)     0.00  4624.11     0  00:00        0.00
  851                  DIVIDER   -nan(ind)     0.00  4550.26     0  00:00        0.00
  860                  DIVIDER   -nan(ind)     0.00  4538.18     0  00:00        0.00
  861                  DIVIDER   -nan(ind)     0.00  4536.89     0  00:00        0.00
  870                  DIVIDER   -nan(ind)     0.00  4532.47     0  00:00        0.00
  895                  DIVIDER   -nan(ind)     0.00  4544.60     0  00:00        0.00
  905                  DIVIDER   -nan(ind)     0.00  4625.22     0  00:00        0.00
  DIV-10               DIVIDER   -nan(ind)     0.00  4529.98     0  00:00        0.00
  DIV-170              DIVIDER   -nan(ind)     0.00  4548.79     0  00:00        0.00
  JCT-24               DIVIDER   -nan(ind)     0.00  4598.00     0  00:00        0.00
  1436                 STORAGE   -nan(ind)     0.00  4555.00     0  00:00        0.00
  1729                 STORAGE   -nan(ind)     0.00  4602.00     0  00:00        0.00
  1837                 STORAGE   -nan(ind)     0.00  4524.00     0  00:00        0.00
  1842                 STORAGE   -nan(ind)     0.00  4527.50     0  00:00        0.00
  1844                 STORAGE   -nan(ind)     0.00  4539.00     0  00:00        0.00
  1845                 STORAGE   -nan(ind)     0.00  4535.00     0  00:00        0.00
  1998                 STORAGE   -nan(ind)     0.00  4550.00     0  00:00        0.00
  2003                 STORAGE   -nan(ind)     0.00  4556.50     0  00:00        0.00
  2005                 STORAGE   -nan(ind)     0.00  4531.00     0  00:00        0.00
  2012                 STORAGE   -nan(ind)     0.00  4530.00     0  00:00        0.00
  2013                 STORAGE   -nan(ind)     0.00  4526.00     0  00:00        0.00
  2014                 STORAGE   -nan(ind)     0.00  4515.00     0  00:00        0.00
  2097                 STORAGE   -nan(ind)     0.00  4517.00     0  00:00        0.00
  2355                 STORAGE   -nan(ind)     0.00  4549.00     0  00:00        0.00
  3000                 STORAGE   -nan(ind)     0.00  4630.00     0  00:00        0.00
  3010                 STORAGE   -nan(ind)     0.00  4620.00     0  00:00        0.00
  3020                 STORAGE   -nan(ind)     0.00  4596.50     0  00:00        0.00
  
  
  *******************
  Node Inflow Summary
  *******************
  
  -------------------------------------------------------------------------------------------------
                                  Maximum  Maximum                  Lateral       Total        Flow
                                  Lateral    Total  Time of Max      Inflow      Inflow     Balance
                                   Inflow   Inflow   Occurrence      Volume      Volume       Error
  Node                 Type           CFS      CFS  days hr:min    10^6 gal    10^6 gal     Percent
  -------------------------------------------------------------------------------------------------
  1029                 JUNCTION      0.00     0.00     0  00:00           0           0       0.000 gal
  1035                 JUNCTION      0.00     0.00     0  00:00           0           0       0.000 gal
  1037                 JUNCTION      0.00     0.00     0  00:00           0           0       0.000 gal
  1039                 JUNCTION      0.00     0.00     0  00:00           0           0       0.000 gal
  1049                 JUNCTION      0.00     0.00     0  00:00           0           0       0.000 gal
  1050                 JUNCTION      0.00     0.00     0  00:00           0           0       0.000 gal
  1052                 JUNCTION      0.00     0.00     0  00:00           0           0       0.000 gal
  1063                 JUNCTION      0.00     0.00     0  00:00           0           0       0.000 gal
  1067                 JUNCTION      0.00     0.00     0  00:00           0           0       0.000 gal
  1069                 JUNCTION      0.00     0.00     0  00:00           0           0       0.000 gal
  1071                 JUNCTION      0.00     0.00     0  00:00           0           0       0.000 gal
  1092                 JUNCTION      0.00     0.00     0  00:00           0           0       0.000 gal
  1101                 JUNCTION      0.00     0.00     0  00:00           0           0       0.000 gal
  1110                 JUNCTION      0.00     0.00     0  00:00           0           0       0.000 gal
  1131                 JUNCTION      0.00     0.00     0  00:00           0           0       0.000 gal
  1170                 JUNCTION      0.00     0.00     0  00:00           0           0       0.000 gal
  1410                 JUNCTION      0.00     0.00     0  00:00           0           0       0.000 gal
  1414                 JUNCTION      0.00     0.00     0  00:00           0           0       0.000 gal
  1762                 JUNCTION      0.00     0.00     0  00:00           0           0       0.000 gal
  1764                 JUNCTION      0.00     0.00     0  00:00           0           0       0.000 gal
  1766                 JUNCTION      0.00     0.00     0  00:00           0           0       0.000 gal
  1767                 JUNCTION      0.00     0.00     0  00:00           0           0       0.000 gal
  1792                 JUNCTION      0.00     0.00     0  00:00           0           0       0.000 gal
  1800                 JUNCTION      0.00     0.00     0  00:00           0           0       0.000 gal
  1801                 JUNCTION      0.00     0.00     0  00:00           0           0       0.000 gal
  1804                 JUNCTION      0.00     0.00     0  00:00           0           0       0.000 gal
  1806                 JUNCTION      0.00     0.00     0  00:00           0           0       0.000 gal
  1808                 JUNCTION      0.00     0.00     0  00:00           0           0       0.000 gal
  1810                 JUNCTION      0.00     0.00     0  00:00           0           0       0.000 gal
  1846                 JUNCTION      0.00     0.00     0  00:00           0           0       0.000 gal
  1847                 JUNCTION      0.00     0.00     0  00:00           0           0       0.000 gal
  1861                 JUNCTION      0.00     0.00     0  00:00           0           0       0.000 gal
  1866                 JUNCTION      0.00     0.00     0  00:00           0           0       0.000 gal
  1867                 JUNCTION      0.00     0.00     0  00:00           0           0       0.000 gal
  1875                 JUNCTION      0.00     0.00     0  00:00           0           0       0.000 gal
  1876                 JUNCTION      0.00     0.00     0  00:00           0           0       0.000 gal
  1884                 JUNCTION      0.00     0.00     0  00:00           0           0       0.000 gal
  1893                 JUNCTION      0.00     0.00     0  00:00           0           0       0.000 gal
  1894                 JUNCTION      0.00     0.00     0  00:00           0           0       0.000 gal
  1896                 JUNCTION      0.00     0.00     0  00:00           0           0       0.000 gal
  1898                 JUNCTION      0.00     0.00     0  00:00           0           0       0.000 gal
  1923                 JUNCTION      0.00     0.00     0  00:00           0           0       0.000 gal
  1954                 JUNCTION      0.00     0.00     0  00:00           0           0       0.000 gal
  1965                 JUNCTION      0.00     0.00     0  00:00           0           0       0.000 gal
  2069                 JUNCTION      0.00     0.00     0  00:00           0           0       0.000 gal
  2076                 JUNCTION      0.00     0.00     0  00:00           0           0       0.000 gal
  2087                 JUNCTION      0.00     0.00     0  00:00           0           0       0.000 gal
  2169                 JUNCTION      0.00     0.00     0  00:00           0           0       0.000 gal
  2171                 JUNCTION      0.00     0.00     0  00:00           0           0       0.000 gal
  2242                 JUNCTION      0.00     0.00     0  00:00           0           0       0.000 gal
  2255                 JUNCTION      0.00     0.00     0  00:00           0           0       0.000 gal
  2256                 JUNCTION      0.00     0.00     0  00:00           0           0       0.000 gal
  2266                 JUNCTION      0.00     0.00     0  00:00           0           0       0.000 gal
  2339                 JUNCTION      0.00     0.00     0  00:00           0           0       0.000 gal
  2347                 JUNCTION      0.00     0.00     0  00:00           0           0       0.000 gal
  2349                 JUNCTION      0.00     0.00     0  00:00           0           0       0.000 gal
  2358                 JUNCTION      0.00     0.00     0  00:00           0           0       0.000 gal
  2369                 JUNCTION      0.00     0.00     0  00:00           0           0       0.000 gal
  2370                 JUNCTION      0.00     0.00     0  00:00           0           0       0.000 gal
  238                  JUNCTION      0.00     0.00     0  00:00           0           0       0.000 gal
  2381                 JUNCTION      0.00     0.00     0  00:00           0           0       0.000 gal
  2382                 JUNCTION      0.00     0.00     0  00:00           0           0       0.000 gal
  243                  JUNCTION      0.00     0.00     0  00:00           0           0       0.000 gal
  272                  JUNCTION      0.00     0.00     0  00:00           0           0       0.000 gal
  341                  JUNCTION      0.00     0.00     0  00:00           0           0       0.000 gal
  375                  JUNCTION      0.00     0.00     0  00:00           0           0       0.000 gal
  384                  JUNCTION      0.00     0.00     0  00:00           0           0       0.000 gal
  385                  JUNCTION      0.00     0.00     0  00:00           0           0       0.000 gal
  386                  JUNCTION      0.00     0.00     0  00:00           0           0       0.000 gal
  387                  JUNCTION      0.00     0.00     0  00:00           0           0       0.000 gal
  392                  JUNCTION      0.00     0.00     0  00:00           0           0       0.000 gal
  439                  JUNCTION      0.00     0.00     0  00:00           0           0       0.000 gal
  562                  JUNCTION      0.00     0.00     0  00:00           0           0       0.000 gal
  592                  JUNCTION      0.00     0.00     0  00:00           0           0       0.000 gal
  597                  JUNCTION      0.00     0.00     0  00:00           0           0       0.000 gal
  662                  JUNCTION      0.00     0.00     0  00:00           0           0       0.000 gal
  676                  JUNCTION      0.00     0.00     0  00:00           0           0       0.000 gal
  787                  JUNCTION      0.00     0.00     0  00:00           0           0       0.000 gal
  788                  JUNCTION      0.00     0.00     0  00:00           0           0       0.000 gal
  791                  JUNCTION      0.00     0.00     0  00:00           0           0       0.000 gal
  853                  JUNCTION      0.00     0.00     0  00:00           0           0       0.000 gal
  854                  JUNCTION      0.00     0.00     0  00:00           0           0       0.000 gal
  855                  JUNCTION      0.00     0.00     0  00:00           0           0       0.000 gal
  857                  JUNCTION      0.00     0.00     0  00:00           0           0       0.000 gal
  858                  JUNCTION      0.00     0.00     0  00:00           0           0       0.000 gal
  859                  JUNCTION      0.00     0.00     0  00:00           0           0       0.000 gal
  862                  JUNCTION      0.00     0.00     0  00:00           0           0       0.000 gal
  863                  JUNCTION      0.00     0.00     0  00:00           0           0       0.000 gal
  864                  JUNCTION      0.00     0.00     0  00:00           0           0       0.000 gal
  865                  JUNCTION      0.00     0.00     0  00:00           0           0       0.000 gal
  866                  JUNCTION      0.00     0.00     0  00:00           0           0       0.000 gal
  867                  JUNCTION      0.00     0.00     0  00:00           0           0       0.000 gal
  868                  JUNCTION      0.00     0.00     0  00:00           0           0       0.000 gal
  869                  JUNCTION      0.00     0.00     0  00:00           0           0       0.000 gal
  879                  JUNCTION      0.00     0.00     0  00:00           0           0       0.000 gal
  880                  JUNCTION      0.00     0.00     0  00:00           0           0       0.000 gal
  882                  JUNCTION      0.00     0.00     0  00:00           0           0       0.000 gal
  883                  JUNCTION      0.00     0.00     0  00:00           0           0       0.000 gal
  884                  JUNCTION      0.00     0.00     0  00:00           0           0       0.000 gal
  885                  JUNCTION      0.00     0.00     0  00:00           0           0       0.000 gal
  886                  JUNCTION      0.00     0.00     0  00:00           0           0       0.000 gal
  887                  JUNCTION      0.00     0.00     0  00:00           0           0       0.000 gal
  888                  JUNCTION      0.00     0.00     0  00:00           0           0       0.000 gal
  889                  JUNCTION      0.00     0.00     0  00:00           0           0       0.000 gal
  896                  JUNCTION      0.00     0.00     0  00:00           0           0       0.000 gal
  901                  JUNCTION      0.00     0.00     0  00:00           0           0       0.000 gal
  902                  JUNCTION      0.00     0.00     0  00:00           0           0       0.000 gal
  903                  JUNCTION      0.00     0.00     0  00:00           0           0       0.000 gal
  904                  JUNCTION      0.00     0.00     0  00:00           0           0       0.000 gal
  906                  JUNCTION      0.00     0.00     0  00:00           0           0       0.000 gal
  907                  JUNCTION      0.00     0.00     0  00:00           0           0       0.000 gal
  908                  JUNCTION      0.00     0.00     0  00:00           0           0       0.000 gal
  909                  JUNCTION      0.00     0.00     0  00:00           0           0       0.000 gal
  JCT-10               JUNCTION      0.00     0.00     0  00:00           0           0       0.000 gal
  JCT-12               JUNCTION      0.00     0.00     0  00:00           0           0       0.000 gal
  JCT-16               JUNCTION      0.00     0.00     0  00:00           0           0       0.000 gal
  JCT-18               JUNCTION      0.00     0.00     0  00:00           0           0       0.000 gal
  JCT-26               JUNCTION      0.00     0.00     0  00:00           0           0       0.000 gal
  JCT-28               JUNCTION      0.00     0.00     0  00:00           0           0       0.000 gal
  JCT-30               JUNCTION      0.00     0.00     0  00:00           0           0       0.000 gal
  JCT-32               JUNCTION      0.00     0.00     0  00:00           0           0       0.000 gal
  JCT-34               JUNCTION      0.00     0.00     0  00:00           0           0       0.000 gal
  JCT-36               JUNCTION      0.00     0.00     0  00:00           0           0       0.000 gal
  JCT-38               JUNCTION      0.00     0.00     0  00:00           0           0       0.000 gal
  JCT-40               JUNCTION      0.00     0.00     0  00:00           0           0       0.000 gal
  JCT-42               JUNCTION      0.00     0.00     0  00:00           0           0       0.000 gal
  JCT-46               JUNCTION      0.00     0.00     0  00:00           0           0       0.000 gal
  JCT-48               JUNCTION      0.00     0.00     0  00:00           0           0       0.000 gal
  JCT-60               JUNCTION      0.00     0.00     0  00:00           0           0       0.000 gal
  JCT-62               JUNCTION      0.00     0.00     0  00:00           0           0       0.000 gal
  LP-2380              JUNCTION      0.00     0.00     0  00:00           0           0       0.000 gal
  OS-2168              JUNCTION      0.00     0.00     0  00:00           0           0       0.000 gal
  1821                 OUTFALL       0.00     0.00     0  00:00           0           0       0.000 gal
  1088-2               DIVIDER       0.00     0.00     0  00:00           0           0       0.000 gal
  1103                 DIVIDER       0.00     0.00     0  00:00           0           0       0.000 gal
  1153                 DIVIDER       0.00     0.00     0  00:00           0           0       0.000 gal
  1759                 DIVIDER       0.00     0.00     0  00:00           0           0       0.000 gal
  1760                 DIVIDER       0.00     0.00     0  00:00           0           0       0.000 gal
  1763                 DIVIDER       0.00     0.00     0  00:00           0           0       0.000 gal
  1765                 DIVIDER       0.00     0.00     0  00:00           0           0       0.000 gal
  180                  DIVIDER       0.00     0.00     0  00:00           0           0       0.000 gal
  1805                 DIVIDER       0.00     0.00     0  00:00           0           0       0.000 gal
  1807                 DIVIDER       0.00     0.00     0  00:00           0           0       0.000 gal
  1809                 DIVIDER       0.00     0.00     0  00:00           0           0       0.000 gal
  1818                 DIVIDER       0.00     0.00     0  00:00           0           0       0.000 gal
  1895                 DIVIDER       0.00     0.00     0  00:00           0           0       0.000 gal
  1897                 DIVIDER       0.00     0.00     0  00:00           0           0       0.000 gal
  1952                 DIVIDER       0.00     0.00     0  00:00           0           0       0.000 gal
  1955                 DIVIDER       0.00     0.00     0  00:00           0           0       0.000 gal
  2428                 DIVIDER       0.00     0.00     0  00:00           0           0       0.000 gal
  399                  DIVIDER       0.00     0.00     0  00:00           0           0       0.000 gal
  416                  DIVIDER       0.00     0.00     0  00:00           0           0       0.000 gal
  589                  DIVIDER       0.00     0.00     0  00:00           0           0       0.000 gal
  792                  DIVIDER       0.00     0.00     0  00:00           0           0       0.000 gal
  851                  DIVIDER       0.00     0.00     0  00:00           0           0       0.000 gal
  860                  DIVIDER       0.00     0.00     0  00:00           0           0       0.000 gal
  861                  DIVIDER       0.00     0.00     0  00:00           0           0       0.000 gal
  870                  DIVIDER       0.00     0.00     0  00:00           0           0       0.000 gal
  895                  DIVIDER       0.00     0.00     0  00:00           0           0       0.000 gal
  905                  DIVIDER       0.00     0.00     0  00:00           0           0       0.000 gal
  DIV-10               DIVIDER       0.00     0.00     0  00:00           0           0       0.000 gal
  DIV-170              DIVIDER       0.00     0.00     0  00:00           0           0       0.000 gal
  JCT-24               DIVIDER       0.00     0.00     0  00:00           0           0       0.000 gal
  1436                 STORAGE       0.00     0.00     0  00:00           0           0       0.000 gal
  1729                 STORAGE       0.00     0.00     0  00:00           0           0       0.000 gal
  1837                 STORAGE       0.00     0.00     0  00:00           0           0       0.000 gal
  1842                 STORAGE       0.00     0.00     0  00:00           0           0       0.000 gal
  1844                 STORAGE       0.00     0.00     0  00:00           0           0       0.000 gal
  1845                 STORAGE       0.00     0.00     0  00:00           0           0       0.000 gal
  1998                 STORAGE       0.00     0.00     0  00:00           0           0       0.000 gal
  2003                 STORAGE       0.00     0.00     0  00:00           0           0       0.000 gal
  2005                 STORAGE       0.00     0.00     0  00:00           0           0       0.000 gal
  2012                 STORAGE       0.00     0.00     0  00:00           0           0       0.000 gal
  2013                 STORAGE       0.00     0.00     0  00:00           0           0       0.000 gal
  2014                 STORAGE       0.00     0.00     0  00:00           0           0       0.000 gal
  2097                 STORAGE       0.00     0.00     0  00:00           0           0       0.000 gal
  2355                 STORAGE       0.00     0.00     0  00:00           0           0       0.000 gal
  3000                 STORAGE       0.00     0.00     0  00:00           0           0       0.000 gal
  3010                 STORAGE       0.00     0.00     0  00:00           0           0       0.000 gal
  3020                 STORAGE       0.00     0.00     0  00:00           0           0       0.000 gal
  
  
  *********************
  Node Flooding Summary
  *********************
  
  No nodes were flooded.
  
  
  **********************
  Storage Volume Summary
  **********************
  
  --------------------------------------------------------------------------------------------------
                         Average     Avg  Evap Exfil       Maximum     Max    Time of Max    Maximum
                          Volume    Pcnt  Pcnt  Pcnt        Volume    Pcnt     Occurrence    Outflow
  Storage Unit          1000 ft3    Full  Loss  Loss      1000 ft3    Full    days hr:min        CFS
  --------------------------------------------------------------------------------------------------
  1436                 -nan(ind)    -nan(ind)     0     0         0.000       0       0  00:00       0.00
  1729                 -nan(ind)    -nan(ind)     0     0         0.000       0       0  00:00       0.00
  1837                 -nan(ind)    -nan(ind)     0     0         0.000       0       0  00:00       0.00
  1842                 -nan(ind)    -nan(ind)     0     0         0.000       0       0  00:00       0.00
  1844                 -nan(ind)    -nan(ind)     0     0         0.000       0       0  00:00       0.00
  1845                 -nan(ind)    -nan(ind)     0     0         0.000       0       0  00:00       0.00
  1998                 -nan(ind)    -nan(ind)     0     0         0.000       0       0  00:00       0.00
  2003                 -nan(ind)    -nan(ind)     0     0         0.000       0       0  00:00       0.00
  2005                 -nan(ind)    -nan(ind)     0     0         0.000       0       0  00:00       0.00
  2012                 -nan(ind)    -nan(ind)     0     0         0.000       0       0  00:00       0.00
  2013                 -nan(ind)    -nan(ind)     0     0         0.000       0       0  00:00       0.00
  2014                 -nan(ind)    -nan(ind)     0     0         0.000       0       0  00:00       0.00
  2097                 -nan(ind)    -nan(ind)     0     0         0.000       0       0  00:00       0.00
  2355                 -nan(ind)    -nan(ind)     0     0         0.000       0       0  00:00       0.00
  3000                 -nan(ind)    -nan(ind)     0     0         0.000       0       0  00:00       0.00
  3010                 -nan(ind)    -nan(ind)     0     0         0.000       0       0  00:00       0.00
  3020                 -nan(ind)    -nan(ind)     0     0         0.000       0       0  00:00       0.00
  
  
  ***********************
  Outfall Loading Summary
  ***********************
  
  -----------------------------------------------------------
                         Flow       Avg       Max       Total
                         Freq      Flow      Flow      Volume
  Outfall Node           Pcnt       CFS       CFS    10^6 gal
  -----------------------------------------------------------
  1821                -nan(ind)      0.00      0.00       0.000
  -----------------------------------------------------------
  System              -nan(ind)      0.00      0.00       0.000
  
  
  ********************
  Link Flow Summary
  ********************
  
  -----------------------------------------------------------------------------
                                 Maximum  Time of Max   Maximum    Max/    Max/
                                  |Flow|   Occurrence   |Veloc|    Full    Full
  Link                 Type          CFS  days hr:min    ft/sec    Flow   Depth
  -----------------------------------------------------------------------------
  1088-OVERFLOW        CONDUIT      0.00     0  00:00      0.00    0.00    0.00
  1379                 CONDUIT      0.00     0  00:00      0.00    0.00    0.00
  1382                 CHANNEL      0.00     0  00:00      0.00    0.00    0.00
  1386                 CHANNEL      0.00     0  00:00      0.00    0.00    0.00
  1395                 CHANNEL      0.00     0  00:00      0.00    0.00    0.00
  1397                 CHANNEL      0.00     0  00:00      0.00    0.00    0.00
  1400                 CHANNEL      0.00     0  00:00      0.00    0.00    0.00
  1405                 CHANNEL      0.00     0  00:00      0.00    0.00    0.00
  1408                 CHANNEL      0.00     0  00:00      0.00    0.00    0.00
  1412                 CHANNEL      0.00     0  00:00      0.00    0.00    0.00
  1413                 CONDUIT      0.00     0  00:00      0.00    0.00    0.00
  1415                 CONDUIT      0.00     0  00:00      0.00    0.00    0.00
  1562                 CONDUIT      0.00     0  00:00      0.00    0.00    0.00
  1563                 CONDUIT      0.00     0  00:00      0.00    0.00    0.00
  1567                 CONDUIT      0.00     0  00:00      0.00    0.00    0.00
  1568                 CONDUIT      0.00     0  00:00      0.00    0.00    0.00
  1569                 CONDUIT      0.00     0  00:00      0.00    0.00    0.00
  1570                 CONDUIT      0.00     0  00:00      0.00    0.00    0.00
  1573                 CONDUIT      0.00     0  00:00      0.00    0.00    0.00
  1576                 CONDUIT      0.00     0  00:00      0.00    0.00    0.00
  1577                 CONDUIT      0.00     0  00:00      0.00    0.00    0.00
  1578                 CONDUIT      0.00     0  00:00      0.00    0.00    0.00
  1579                 CONDUIT      0.00     0  00:00      0.00    0.00    0.00
  1581                 CONDUIT      0.00     0  00:00      0.00    0.00    0.00
  1585                 CONDUIT      0.00     0  00:00      0.00    0.00    0.00
  1586                 CONDUIT      0.00     0  00:00      0.00    0.00    0.00
  1590                 CONDUIT      0.00     0  00:00      0.00    0.00    0.00
  1591                 CONDUIT      0.00     0  00:00      0.00    0.00    0.00
  1592                 CONDUIT      0.00     0  00:00      0.00    0.00    0.00
  1593                 CONDUIT      0.00     0  00:00      0.00    0.00    0.00
  1594                 CONDUIT      0.00     0  00:00      0.00    0.00    0.00
  1595                 CONDUIT      0.00     0  00:00      0.00    0.00    0.00
  1597                 CONDUIT      0.00     0  00:00      0.00    0.00    0.00
  1599                 CONDUIT      0.00     0  00:00      0.00    0.00    0.00
  1600                 CONDUIT      0.00     0  00:00      0.00    0.00    0.00
  1601                 CONDUIT      0.00     0  00:00      0.00    0.00    0.00
  1602                 CONDUIT      0.00     0  00:00      0.00    0.00    0.00
  1603                 CONDUIT      0.00     0  00:00      0.00    0.00    0.00
  1606                 CONDUIT      0.00     0  00:00      0.00    0.00    0.00
  1607                 CONDUIT      0.00     0  00:00      0.00    0.00    0.00
  1608                 CONDUIT      0.00     0  00:00      0.00    0.00    0.00
  1609                 CONDUIT      0.00     0  00:00      0.00    0.00    0.00
  1610                 CONDUIT      0.00     0  00:00      0.00    0.00    0.00
  1612                 CONDUIT      0.00     0  00:00      0.00    0.00    0.00
  1613                 CONDUIT      0.00     0  00:00      0.00    0.00    0.00
  1614                 CONDUIT      0.00     0  00:00      0.00    0.00    0.00
  1616                 CONDUIT      0.00     0  00:00      0.00    0.00    0.00
  1618                 CONDUIT      0.00     0  00:00      0.00    0.00    0.00
  1620                 CONDUIT      0.00     0  00:00      0.00    0.00    0.00
  1621                 CONDUIT      0.00     0  00:00      0.00    0.00    0.00
  1622                 CONDUIT      0.00     0  00:00      0.00    0.00    0.00
  1623                 CONDUIT      0.00     0  00:00      0.00    0.00    0.00
  1624                 CONDUIT      0.00     0  00:00      0.00    0.00    0.00
  1625                 CONDUIT      0.00     0  00:00      0.00    0.00    0.00
  1626                 CONDUIT      0.00     0  00:00      0.00    0.00    0.00
  1627                 CONDUIT      0.00     0  00:00      0.00    0.00    0.00
  1630                 CONDUIT      0.00     0  00:00      0.00    0.00    0.00
  1631                 CONDUIT      0.00     0  00:00      0.00    0.00    0.00
  1632                 CONDUIT      0.00     0  00:00      0.00    0.00    0.00
  1633                 CONDUIT      0.00     0  00:00      0.00    0.00    0.00
  1635                 CONDUIT      0.00     0  00:00      0.00    0.00    0.00
  1636                 CONDUIT      0.00     0  00:00      0.00    0.00    0.00
  1637                 CONDUIT      0.00     0  00:00      0.00    0.00    0.00
  1638                 CONDUIT      0.00     0  00:00      0.00    0.00    0.00
  1639                 CONDUIT      0.00     0  00:00      0.00    0.00    0.00
  1641                 CONDUIT      0.00     0  00:00      0.00    0.00    0.00
  1642                 CONDUIT      0.00     0  00:00      0.00    0.00    0.00
  1643                 CONDUIT      0.00     0  00:00      0.00    0.00    0.00
  1644                 CONDUIT      0.00     0  00:00      0.00    0.00    0.00
  1645                 CONDUIT      0.00     0  00:00      0.00    0.00    0.00
  1646                 CONDUIT      0.00     0  00:00      0.00    0.00    0.00
  1647                 CONDUIT      0.00     0  00:00      0.00    0.00    0.00
  1649                 CONDUIT      0.00     0  00:00      0.00    0.00    0.00
  1651                 CONDUIT      0.00     0  00:00      0.00    0.00    0.00
  1652                 CONDUIT      0.00     0  00:00      0.00    0.00    0.00
  1653                 CONDUIT      0.00     0  00:00      0.00    0.00    0.00
  1656                 CONDUIT      0.00     0  00:00      0.00    0.00    0.00
  1657                 CONDUIT      0.00     0  00:00      0.00    0.00    0.00
  1658                 CONDUIT      0.00     0  00:00      0.00    0.00    0.00
  1659                 CONDUIT      0.00     0  00:00      0.00    0.00    0.00
  1660                 CONDUIT      0.00     0  00:00      0.00    0.00    0.00
  1661                 CONDUIT      0.00     0  00:00      0.00    0.00    0.00
  1664                 CONDUIT      0.00     0  00:00      0.00    0.00    0.00
  1665                 CONDUIT      0.00     0  00:00      0.00    0.00    0.00
  1666                 CONDUIT      0.00     0  00:00      0.00    0.00    0.00
  1667                 CONDUIT      0.00     0  00:00      0.00    0.00    0.00
  1668                 CONDUIT      0.00     0  00:00      0.00    0.00    0.00
  1669                 CONDUIT      0.00     0  00:00      0.00    0.00    0.00
  1670                 CONDUIT      0.00     0  00:00      0.00    0.00    0.00
  1671                 CONDUIT      0.00     0  00:00      0.00    0.00    0.00
  1673                 CONDUIT      0.00     0  00:00      0.00    0.00    0.00
  1674                 CONDUIT      0.00     0  00:00      0.00    0.00    0.00
  170-OVERFLOW         CONDUIT      0.00     0  00:00      0.00    0.00    0.00
  1731                 CONDUIT      0.00     0  00:00      0.00    0.00    0.00
  1744                 CONDUIT      0.00     0  00:00      0.00    0.00    0.00
  1746                 CONDUIT      0.00     0  00:00      0.00    0.00    0.00
  1748                 CONDUIT      0.00     0  00:00      0.00    0.00    0.00
  1752                 CONDUIT      0.00     0  00:00      0.00    0.00    0.00
  1755                 CONDUIT      0.00     0  00:00      0.00    0.00    0.00
  1756                 CONDUIT      0.00     0  00:00      0.00    0.00    0.00
  1761                 CONDUIT      0.00     0  00:00      0.00    0.00    0.00
  1768                 CONDUIT      0.00     0  00:00      0.00    0.00    0.00
  1769                 CONDUIT      0.00     0  00:00      0.00    0.00    0.00
  1770                 CONDUIT      0.00     0  00:00      0.00    0.00    0.00
  1771                 CONDUIT      0.00     0  00:00      0.00    0.00    0.00
  1772                 CONDUIT      0.00     0  00:00      0.00    0.00    0.00
  1773                 CONDUIT      0.00     0  00:00      0.00    0.00    0.00
  1776                 CONDUIT      0.00     0  00:00      0.00    0.00    0.00
  1793                 CHANNEL      0.00     0  00:00      0.00    0.00    0.00
  1796                 CHANNEL      0.00     0  00:00      0.00    0.00    0.00
  1820                 CONDUIT      0.00     0  00:00      0.00    0.00    0.00
  1848                 CONDUIT      0.00     0  00:00      0.00    0.00    0.00
  1852                 CHANNEL      0.00     0  00:00      0.00    0.00    0.00
  1864                 CONDUIT      0.00     0  00:00      0.00    0.00    0.00
  1869                 CONDUIT      0.00     0  00:00      0.00    0.00    0.00
  1873                 CONDUIT      0.00     0  00:00      0.00    0.00    0.00
  1879                 CONDUIT      0.00     0  00:00      0.00    0.00    0.00
  1883                 CHANNEL      0.00     0  00:00      0.00    0.00    0.00
  1885                 CHANNEL      0.00     0  00:00      0.00    0.00    0.00
  1900                 CONDUIT      0.00     0  00:00      0.00    0.00    0.00
  1957                 CHANNEL      0.00     0  00:00      0.00    0.00    0.00
  2077                 CHANNEL      0.00     0  00:00      0.00    0.00    0.00
  2080                 CHANNEL      0.00     0  00:00      0.00    0.00    0.00
  2091                 CONDUIT      0.00     0  00:00      0.00    0.00    0.00
  2111                 CONDUIT      0.00     0  00:00      0.00    0.00    0.00
  2172                 CONDUIT      0.00     0  00:00      0.00    0.00    0.00
  2173                 CONDUIT      0.00     0  00:00      0.00    0.00    0.00
  2175                 CHANNEL      0.00     0  00:00      0.00    0.00    0.00
  2244                 CONDUIT      0.00     0  00:00      0.00    0.00    0.00
  2245                 CONDUIT      0.00     0  00:00      0.00    0.00    0.00
  2258                 CHANNEL      0.00     0  00:00      0.00    0.00    0.00
  2259                 CHANNEL      0.00     0  00:00      0.00    0.00    0.00
  2268                 CONDUIT      0.00     0  00:00      0.00    0.00    0.00
  2269                 CONDUIT      0.00     0  00:00      0.00    0.00    0.00
  2274                 CONDUIT      0.00     0  00:00      0.00    0.00    0.00
  2275                 CONDUIT      0.00     0  00:00      0.00    0.00    0.00
  2276                 CONDUIT      0.00     0  00:00      0.00    0.00    0.00
  2277                 CONDUIT      0.00     0  00:00      0.00    0.00    0.00
  2282                 DUMMY        0.00     0  00:00
  2346                 CONDUIT      0.00     0  00:00      0.00    0.00    0.00
  2350                 CONDUIT      0.00     0  00:00      0.00    0.00    0.00
  2351                 CONDUIT      0.00     0  00:00      0.00    0.00    0.00
  2359                 CHANNEL      0.00     0  00:00      0.00    0.00    0.00
  2371                 CONDUIT      0.00     0  00:00      0.00    0.00    0.00
  2379                 CONDUIT      0.00     0  00:00      0.00    0.00    0.00
  2383                 CONDUIT      0.00     0  00:00      0.00    0.00    0.00
  2384                 CONDUIT      0.00     0  00:00      0.00    0.00    0.00
  CDT-101              CHANNEL      0.00     0  00:00      0.00    0.00    0.00
  CDT-103              CONDUIT      0.00     0  00:00      0.00    0.00    0.00
  CDT-105              CONDUIT      0.00     0  00:00      0.00    0.00    0.00
  CDT-107              DUMMY        0.00     0  00:00
  CDT-129              DUMMY        0.00     0  00:00
  CDT-131              DUMMY        0.00     0  00:00
  CDT-15               CONDUIT      0.00     0  00:00      0.00    0.00    0.00
  CDT-17               CONDUIT      0.00     0  00:00      0.00    0.00    0.00
  CDT-19               CONDUIT      0.00     0  00:00      0.00    0.00    0.00
  CDT-21               CONDUIT      0.00     0  00:00      0.00    0.00    0.00
  CDT-23               CONDUIT      0.00     0  00:00      0.00    0.00    0.00
  CDT-25               DUMMY        0.00     0  00:00
  CDT-27               CONDUIT      0.00     0  00:00      0.00    0.00    0.00
  CDT-29               CONDUIT      0.00     0  00:00      0.00    0.00    0.00
  CDT-31               CONDUIT      0.00     0  00:00      0.00    0.00    0.00
  CDT-33               CONDUIT      0.00     0  00:00      0.00    0.00    0.00
  CDT-35               CONDUIT      0.00     0  00:00      0.00    0.00    0.00
  CDT-37               CONDUIT      0.00     0  00:00      0.00    0.00    0.00
  CDT-39               DUMMY        0.00     0  00:00
  CDT-43               DUMMY        0.00     0  00:00
  CDT-45               CONDUIT      0.00     0  00:00      0.00    0.00    0.00
  CDT-47               CONDUIT      0.00     0  00:00      0.00    0.00    0.00
  CDT-49               CONDUIT      0.00     0  00:00      0.00    0.00    0.00
  CDT-57               CONDUIT      0.00     0  00:00      0.00    0.00    0.00
  CDT-59               CONDUIT      0.00     0  00:00      0.00    0.00    0.00
  CDT-61               CONDUIT      0.00     0  00:00      0.00    0.00    0.00
  CDT-63               CONDUIT      0.00     0  00:00      0.00    0.00    0.00
  CDT-65               CONDUIT      0.00     0  00:00      0.00    0.00    0.00
  CDT-67               DUMMY        0.00     0  00:00
  CDT-69               CONDUIT      0.00     0  00:00      0.00    0.00    0.00
  CDT-73               CONDUIT      0.00     0  00:00      0.00    0.00    0.00
  CDT-75               CONDUIT      0.00     0  00:00      0.00    0.00    0.00
  CDT-77               CONDUIT      0.00     0  00:00      0.00    0.00    0.00
  CDT-79               CONDUIT      0.00     0  00:00      0.00    0.00    0.00
  CDT-81               CONDUIT      0.00     0  00:00      0.00    0.00    0.00
  CDT-83               CONDUIT      0.00     0  00:00      0.00    0.00    0.00
  CDT-85               CONDUIT      0.00     0  00:00      0.00    0.00    0.00
  CDT-87               CONDUIT      0.00     0  00:00      0.00    0.00    0.00
  CDT-89               CONDUIT      0.00     0  00:00      0.00    0.00    0.00
  CDT-91               CONDUIT      0.00     0  00:00      0.00    0.00    0.00
  CDT-93               CONDUIT      0.00     0  00:00      0.00    0.00    0.00
  CDT-95               CONDUIT      0.00     0  00:00      0.00    0.00    0.00
  COTTONWOOD_PARK_OVERFLOW CONDUIT      0.00     0  00:00      0.00    0.00    0.00
  I-90-5-OVERFLOW      CONDUIT      0.00     0  00:00      0.00    0.00    0.00
  I-90-NORTH-OVERFLOW  CONDUIT      0.00     0  00:00      0.00    0.00    0.00
  MITCHELL_POND        CONDUIT      0.00     0  00:00      0.00    0.00    0.00
  MITCHELL_POND_OVERFLOW CONDUIT      0.00     0  00:00      0.00    0.00    0.00
  OS-34                CONDUIT      0.00     0  00:00      0.00    0.00    0.00
  ROADWAY-1            CONDUIT      0.00     0  00:00      0.00    0.00    0.00
  ROADWAY-2            CONDUIT      0.00     0  00:00      0.00    0.00    0.00
  ROADWAY-3            CONDUIT      0.00     0  00:00      0.00    0.00    0.00
  ROADWAY-4            CONDUIT      0.00     0  00:00      0.00    0.00    0.00
  ROADWAY-5            CONDUIT      0.00     0  00:00      0.00    0.00    0.00
  ROADWAY-7            CONDUIT      0.00     0  00:00      0.00    0.00    0.00
  ROADWAY-8            CONDUIT      0.00     0  00:00      0.00    0.00    0.00
  ROADWAY-9            CONDUIT      0.00     0  00:00      0.00    0.00    0.00
  SUNFLOWER_PARK_R5_OVERFLOW CONDUIT      0.00     0  00:00      0.00    0.00    0.00
  BOX_ORIFICE_R6       ORIFICE      0.00     0  00:00                      0.00
  CDT-13               ORIFICE      0.00     0  00:00                          
  CDT-97               ORIFICE      0.00     0  00:00                      0.00
  CDT-99               ORIFICE      0.00     0  00:00                      0.00
  I-90-1               ORIFICE      0.00     0  00:00                          
  I-90-4_ORIFICE       ORIFICE      0.00     0  00:00                      0.00
  I-90-5-ORIFICE       ORIFICE      0.00     0  00:00                      0.00
  MITCHELL_POND-ORIFICE ORIFICE      0.00     0  00:00                      0.00
  N_I90-ORIFICE        ORIFICE      0.00     0  00:00                      0.00
  POND-I90-6-ORIFICE   ORIFICE      0.00     0  00:00                      0.00
  POND_R3_ORIFICE      ORIFICE      0.00     0  00:00                      0.00
  PRIVATE_POND_2097-ORIFICE ORIFICE      0.00     0  00:00                      0.00
  R1-ORIFICE           ORIFICE      0.00     0  00:00                      0.00
  R2-ORIFICE           ORIFICE      0.00     0  00:00                      0.00
  R4-ORIFICE-1         ORIFICE      0.00     0  00:00                      0.00
  R4-ORIFICE-2         ORIFICE      0.00     0  00:00                      0.00
  R4-ORIFICE-3         ORIFICE      0.00     0  00:00                      0.00
  R5-ORIFICE           ORIFICE      0.00     0  00:00                      0.00
  R5-ORIFICE-2         ORIFICE      0.00     0  00:00                      0.00
  SILVERADO            ORIFICE      0.00     0  00:00                      0.00
  WEIR-R6              WEIR         0.00     0  00:00                      0.00
  
  
  *************************
  Conduit Surcharge Summary
  *************************
  
  No conduits were surcharged.
  

  Analysis begun on:  Sat Nov 30 08:10:58 2019
  Analysis ended on:  Sat Nov 30 08:10:58 2019
  Total elapsed time: < 1 sec