
  EPA STORM WATER MANAGEMENT MODEL - VERSION 5.1 (Build 5.1.013)
  --------------------------------------------------------------

  WARNING 04: minimum elevation drop used for Conduit U-1
  WARNING 04: minimum elevation drop used for Conduit U-100
  WARNING 04: minimum elevation drop used for Conduit U-101
  WARNING 04: minimum elevation drop used for Conduit U-102
  WARNING 04: minimum elevation drop used for Conduit U-103
  WARNING 04: minimum elevation drop used for Conduit U-104
  WARNING 04: minimum elevation drop used for Conduit U-105
  WARNING 04: minimum elevation drop used for Conduit U-110
  WARNING 04: minimum elevation drop used for Conduit U-112
  WARNING 04: minimum elevation drop used for Conduit U-113
  WARNING 04: minimum elevation drop used for Conduit U-114
  WARNING 04: minimum elevation drop used for Conduit U-118
  WARNING 04: minimum elevation drop used for Conduit U-121
  WARNING 04: minimum elevation drop used for Conduit U-122
  WARNING 04: minimum elevation drop used for Conduit U-131
  WARNING 04: minimum elevation drop used for Conduit U-141
  WARNING 04: minimum elevation drop used for Conduit U-142
  WARNING 04: minimum elevation drop used for Conduit U-147
  WARNING 04: minimum elevation drop used for Conduit U-150
  WARNING 04: minimum elevation drop used for Conduit U-153
  WARNING 04: minimum elevation drop used for Conduit U-155
  WARNING 04: minimum elevation drop used for Conduit U-156
  WARNING 04: minimum elevation drop used for Conduit U-158
  WARNING 04: minimum elevation drop used for Conduit U-16
  WARNING 04: minimum elevation drop used for Conduit U-160
  WARNING 04: minimum elevation drop used for Conduit U-165
  WARNING 04: minimum elevation drop used for Conduit U-167
  WARNING 04: minimum elevation drop used for Conduit U-171
  WARNING 04: minimum elevation drop used for Conduit U-18
  WARNING 04: minimum elevation drop used for Conduit U-184
  WARNING 04: minimum elevation drop used for Conduit U-186
  WARNING 04: minimum elevation drop used for Conduit U-191
  WARNING 04: minimum elevation drop used for Conduit U-193
  WARNING 04: minimum elevation drop used for Conduit U-195
  WARNING 04: minimum elevation drop used for Conduit U-196
  WARNING 04: minimum elevation drop used for Conduit U-199
  WARNING 04: minimum elevation drop used for Conduit U-20
  WARNING 04: minimum elevation drop used for Conduit U-200
  WARNING 04: minimum elevation drop used for Conduit U-202
  WARNING 04: minimum elevation drop used for Conduit U-207
  WARNING 04: minimum elevation drop used for Conduit U-208
  WARNING 04: minimum elevation drop used for Conduit U-211
  WARNING 04: minimum elevation drop used for Conduit U-213
  WARNING 04: minimum elevation drop used for Conduit U-22
  WARNING 04: minimum elevation drop used for Conduit U-228
  WARNING 04: minimum elevation drop used for Conduit U-231
  WARNING 04: minimum elevation drop used for Conduit U-245
  WARNING 04: minimum elevation drop used for Conduit U-249
  WARNING 04: minimum elevation drop used for Conduit U-251
  WARNING 04: minimum elevation drop used for Conduit U-261
  WARNING 04: minimum elevation drop used for Conduit U-262
  WARNING 04: minimum elevation drop used for Conduit U-267
  WARNING 04: minimum elevation drop used for Conduit U-270
  WARNING 04: minimum elevation drop used for Conduit U-271
  WARNING 04: minimum elevation drop used for Conduit U-274
  WARNING 04: minimum elevation drop used for Conduit U-277
  WARNING 04: minimum elevation drop used for Conduit U-28
  WARNING 04: minimum elevation drop used for Conduit U-280
  WARNING 04: minimum elevation drop used for Conduit U-286
  WARNING 04: minimum elevation drop used for Conduit U-289
  WARNING 04: minimum elevation drop used for Conduit U-29
  WARNING 04: minimum elevation drop used for Conduit U-290
  WARNING 04: minimum elevation drop used for Conduit U-293
  WARNING 04: minimum elevation drop used for Conduit U-294
  WARNING 04: minimum elevation drop used for Conduit U-300
  WARNING 04: minimum elevation drop used for Conduit U-304
  WARNING 04: minimum elevation drop used for Conduit U-308
  WARNING 04: minimum elevation drop used for Conduit U-309
  WARNING 04: minimum elevation drop used for Conduit U-312
  WARNING 04: minimum elevation drop used for Conduit U-315
  WARNING 04: minimum elevation drop used for Conduit U-316
  WARNING 04: minimum elevation drop used for Conduit U-319
  WARNING 04: minimum elevation drop used for Conduit U-335
  WARNING 04: minimum elevation drop used for Conduit U-34
  WARNING 04: minimum elevation drop used for Conduit U-341
  WARNING 04: minimum elevation drop used for Conduit U-344
  WARNING 04: minimum elevation drop used for Conduit U-346
  WARNING 04: minimum elevation drop used for Conduit U-347
  WARNING 04: minimum elevation drop used for Conduit U-348
  WARNING 04: minimum elevation drop used for Conduit U-35
  WARNING 04: minimum elevation drop used for Conduit U-352
  WARNING 04: minimum elevation drop used for Conduit U-354
  WARNING 04: minimum elevation drop used for Conduit U-358
  WARNING 04: minimum elevation drop used for Conduit U-364
  WARNING 04: minimum elevation drop used for Conduit U-366
  WARNING 04: minimum elevation drop used for Conduit U-37
  WARNING 04: minimum elevation drop used for Conduit U-372
  WARNING 04: minimum elevation drop used for Conduit U-373
  WARNING 04: minimum elevation drop used for Conduit U-379
  WARNING 04: minimum elevation drop used for Conduit U-38
  WARNING 04: minimum elevation drop used for Conduit U-382
  WARNING 04: minimum elevation drop used for Conduit U-386
  WARNING 04: minimum elevation drop used for Conduit U-397
  WARNING 04: minimum elevation drop used for Conduit U-402
  WARNING 04: minimum elevation drop used for Conduit U-404
  WARNING 04: minimum elevation drop used for Conduit U-417
  WARNING 04: minimum elevation drop used for Conduit U-434
  WARNING 04: minimum elevation drop used for Conduit U-48
  WARNING 04: minimum elevation drop used for Conduit U-50
  WARNING 04: minimum elevation drop used for Conduit U-522
  WARNING 04: minimum elevation drop used for Conduit U-53
  WARNING 04: minimum elevation drop used for Conduit U-54
  WARNING 04: minimum elevation drop used for Conduit U-545
  WARNING 04: minimum elevation drop used for Conduit U-55
  WARNING 04: minimum elevation drop used for Conduit U-557
  WARNING 04: minimum elevation drop used for Conduit U-559
  WARNING 04: minimum elevation drop used for Conduit U-56
  WARNING 04: minimum elevation drop used for Conduit U-562
  WARNING 04: minimum elevation drop used for Conduit U-565
  WARNING 04: minimum elevation drop used for Conduit U-568
  WARNING 04: minimum elevation drop used for Conduit U-569
  WARNING 04: minimum elevation drop used for Conduit U-572
  WARNING 04: minimum elevation drop used for Conduit U-580
  WARNING 04: minimum elevation drop used for Conduit U-584
  WARNING 04: minimum elevation drop used for Conduit U-587
  WARNING 04: minimum elevation drop used for Conduit U-591
  WARNING 04: minimum elevation drop used for Conduit U-596
  WARNING 04: minimum elevation drop used for Conduit U-60
  WARNING 04: minimum elevation drop used for Conduit U-604
  WARNING 04: minimum elevation drop used for Conduit U-608
  WARNING 04: minimum elevation drop used for Conduit U-609
  WARNING 04: minimum elevation drop used for Conduit U-616
  WARNING 04: minimum elevation drop used for Conduit U-618
  WARNING 04: minimum elevation drop used for Conduit U-621
  WARNING 04: minimum elevation drop used for Conduit U-622
  WARNING 04: minimum elevation drop used for Conduit U-623
  WARNING 04: minimum elevation drop used for Conduit U-624
  WARNING 04: minimum elevation drop used for Conduit U-625
  WARNING 04: minimum elevation drop used for Conduit U-628
  WARNING 04: minimum elevation drop used for Conduit U-629
  WARNING 04: minimum elevation drop used for Conduit U-64
  WARNING 04: minimum elevation drop used for Conduit U-643
  WARNING 04: minimum elevation drop used for Conduit U-646
  WARNING 04: minimum elevation drop used for Conduit U-648
  WARNING 04: minimum elevation drop used for Conduit U-656
  WARNING 04: minimum elevation drop used for Conduit U-66
  WARNING 04: minimum elevation drop used for Conduit U-671
  WARNING 04: minimum elevation drop used for Conduit U-674
  WARNING 04: minimum elevation drop used for Conduit U-675
  WARNING 04: minimum elevation drop used for Conduit U-678
  WARNING 04: minimum elevation drop used for Conduit U-68
  WARNING 04: minimum elevation drop used for Conduit U-688
  WARNING 04: minimum elevation drop used for Conduit U-690
  WARNING 04: minimum elevation drop used for Conduit U-694
  WARNING 04: minimum elevation drop used for Conduit U-695
  WARNING 04: minimum elevation drop used for Conduit U-696
  WARNING 04: minimum elevation drop used for Conduit U-70
  WARNING 04: minimum elevation drop used for Conduit U-704
  WARNING 04: minimum elevation drop used for Conduit U-706
  WARNING 04: minimum elevation drop used for Conduit U-707
  WARNING 04: minimum elevation drop used for Conduit U-708
  WARNING 04: minimum elevation drop used for Conduit U-71
  WARNING 04: minimum elevation drop used for Conduit U-710
  WARNING 04: minimum elevation drop used for Conduit U-717
  WARNING 04: minimum elevation drop used for Conduit U-718
  WARNING 04: minimum elevation drop used for Conduit U-725
  WARNING 04: minimum elevation drop used for Conduit U-727
  WARNING 04: minimum elevation drop used for Conduit U-729
  WARNING 04: minimum elevation drop used for Conduit U-73
  WARNING 04: minimum elevation drop used for Conduit U-731
  WARNING 04: minimum elevation drop used for Conduit U-736
  WARNING 04: minimum elevation drop used for Conduit U-738
  WARNING 04: minimum elevation drop used for Conduit U-74
  WARNING 04: minimum elevation drop used for Conduit U-743
  WARNING 04: minimum elevation drop used for Conduit U-745
  WARNING 04: minimum elevation drop used for Conduit U-747
  WARNING 04: minimum elevation drop used for Conduit U-749
  WARNING 04: minimum elevation drop used for Conduit U-75
  WARNING 04: minimum elevation drop used for Conduit U-751
  WARNING 04: minimum elevation drop used for Conduit U-763
  WARNING 04: minimum elevation drop used for Conduit U-766
  WARNING 04: minimum elevation drop used for Conduit U-77
  WARNING 04: minimum elevation drop used for Conduit U-772
  WARNING 04: minimum elevation drop used for Conduit U-783
  WARNING 04: minimum elevation drop used for Conduit U-786
  WARNING 04: minimum elevation drop used for Conduit U-792
  WARNING 04: minimum elevation drop used for Conduit U-801
  WARNING 04: minimum elevation drop used for Conduit U-804
  WARNING 04: minimum elevation drop used for Conduit U-820
  WARNING 04: minimum elevation drop used for Conduit U-823
  WARNING 04: minimum elevation drop used for Conduit U-829
  WARNING 04: minimum elevation drop used for Conduit U-83
  WARNING 04: minimum elevation drop used for Conduit U-832
  WARNING 04: minimum elevation drop used for Conduit U-840
  WARNING 04: minimum elevation drop used for Conduit U-851
  WARNING 04: minimum elevation drop used for Conduit U-852
  WARNING 04: minimum elevation drop used for Conduit U-854
  WARNING 04: minimum elevation drop used for Conduit U-856
  WARNING 04: minimum elevation drop used for Conduit U-858
  WARNING 04: minimum elevation drop used for Conduit U-860
  WARNING 04: minimum elevation drop used for Conduit U-863
  WARNING 04: minimum elevation drop used for Conduit U-866
  WARNING 04: minimum elevation drop used for Conduit U-872
  WARNING 04: minimum elevation drop used for Conduit U-878
  WARNING 04: minimum elevation drop used for Conduit U-879
  WARNING 04: minimum elevation drop used for Conduit U-88
  WARNING 04: minimum elevation drop used for Conduit U-885
  WARNING 04: minimum elevation drop used for Conduit U-90
  WARNING 04: minimum elevation drop used for Conduit U-91
  WARNING 04: minimum elevation drop used for Conduit U-96
  WARNING 04: minimum elevation drop used for Conduit U-97
  WARNING 04: minimum elevation drop used for Conduit U-98
  WARNING 04: minimum elevation drop used for Conduit U-99
  WARNING 02: maximum depth increased for Node J-261
  WARNING 02: maximum depth increased for Node J-534
  WARNING 02: maximum depth increased for Node J-539
  WARNING 02: maximum depth increased for Node J-572
  WARNING 02: maximum depth increased for Node J-884
  
  ERROR 141: Outfall J-102 has more than 1 inlet link or an outlet link.
  
  ERROR 141: Outfall J-11 has more than 1 inlet link or an outlet link.
  
  ERROR 141: Outfall J-118 has more than 1 inlet link or an outlet link.
  
  ERROR 141: Outfall J-139 has more than 1 inlet link or an outlet link.
  
  ERROR 141: Outfall J-235 has more than 1 inlet link or an outlet link.
  
  ERROR 141: Outfall J-268 has more than 1 inlet link or an outlet link.
  
  ERROR 141: Outfall J-284 has more than 1 inlet link or an outlet link.
  
  ERROR 141: Outfall J-312 has more than 1 inlet link or an outlet link.
  
  ERROR 141: Outfall J-33 has more than 1 inlet link or an outlet link.
  
  ERROR 141: Outfall J-385 has more than 1 inlet link or an outlet link.
  
  ERROR 141: Outfall J-412 has more than 1 inlet link or an outlet link.
  
  ERROR 141: Outfall J-444 has more than 1 inlet link or an outlet link.
  
  ERROR 141: Outfall J-561 has more than 1 inlet link or an outlet link.
  
  ERROR 141: Outfall J-566 has more than 1 inlet link or an outlet link.
  
  ERROR 141: Outfall J-567 has more than 1 inlet link or an outlet link.
  
  ERROR 141: Outfall J-575 has more than 1 inlet link or an outlet link.
  
  ERROR 141: Outfall J-577 has more than 1 inlet link or an outlet link.
  
  ERROR 141: Outfall J-582 has more than 1 inlet link or an outlet link.
  
  ERROR 141: Outfall J-603 has more than 1 inlet link or an outlet link.
  
  ERROR 141: Outfall J-626 has more than 1 inlet link or an outlet link.
  
  ERROR 141: Outfall J-650 has more than 1 inlet link or an outlet link.
  
  ERROR 141: Outfall J-692 has more than 1 inlet link or an outlet link.
  
  ERROR 141: Outfall J-693 has more than 1 inlet link or an outlet link.
  
  ERROR 141: Outfall J-702 has more than 1 inlet link or an outlet link.
  
  ERROR 141: Outfall J-72 has more than 1 inlet link or an outlet link.
  
  ERROR 141: Outfall J-721 has more than 1 inlet link or an outlet link.
  
  ERROR 141: Outfall J-736 has more than 1 inlet link or an outlet link.
  
  ERROR 141: Outfall J-772 has more than 1 inlet link or an outlet link.
  
  ERROR 141: Outfall J-780 has more than 1 inlet link or an outlet link.
  
  ERROR 141: Outfall J-792 has more than 1 inlet link or an outlet link.
  
  ERROR 141: Outfall J-920 has more than 1 inlet link or an outlet link.
  
  *********************************************************
  NOTE: The summary statistics displayed in this report are
  based on results found at every computational time step,  
  not just on results from each reporting time step.
  *********************************************************
  
  ****************
  Analysis Options
  ****************
  Flow Units ............... CFS
  Process Models:
    Rainfall/Runoff ........ YES
    RDII ................... NO
    Snowmelt ............... NO
    Groundwater ............ NO
    Flow Routing ........... YES
    Ponding Allowed ........ NO
    Water Quality .......... NO
  Infiltration Method ...... HORTON
  Flow Routing Method ...... DYNWAVE
  Surcharge Method ......... EXTRAN
  Starting Date ............ 01/01/2002 00:00:00
  Ending Date .............. 01/01/2002 06:00:00
  Antecedent Dry Days ...... 5.0
  Report Time Step ......... 00:05:00
  Wet Time Step ............ 00:05:00
  Dry Time Step ............ 01:00:00
  Routing Time Step ........ 30.00 sec
  Variable Time Step ....... YES
  Maximum Trials ........... 8
  Number of Threads ........ 1
  Head Tolerance ........... 0.005000 ft
  

  Analysis begun on:  Sat Nov 30 08:10:58 2019
  Analysis ended on:  Sat Nov 30 08:10:58 2019
  Total elapsed time: < 1 sec