
  EPA STORM WATER MANAGEMENT MODEL - VERSION 5.1 (Build 5.1.013)
  --------------------------------------------------------------

  Scenario Run :  BASECalibrated conditions Fall 2005 
  validation 
  
  
  ERROR 184: missing layer for LID LID-100.
  WARNING 10: crest elevation raised to downstream invert for regulator Link BGH1OR
  WARNING 10: crest elevation raised to downstream invert for regulator Link BROOKLINEAVE
  WARNING 10: crest elevation raised to downstream invert for regulator Link CHESTNUHILLGATEHOUSE2
  WARNING 02: maximum depth increased for Node 1011390027
  WARNING 02: maximum depth increased for Node 1011390030
  WARNING 02: maximum depth increased for Node 1011660012
  WARNING 02: maximum depth increased for Node 1011660020
  WARNING 02: maximum depth increased for Node 1011660025
  WARNING 02: maximum depth increased for Node 1011660049
  WARNING 02: maximum depth increased for Node 1106390011
  WARNING 02: maximum depth increased for Node 1106390030
  WARNING 02: maximum depth increased for Node 1107370081
  WARNING 02: maximum depth increased for Node 1109390025
  WARNING 02: maximum depth increased for Node 1109880021
  WARNING 02: maximum depth increased for Node 1210660009
  WARNING 02: maximum depth increased for Node 1210660043
  WARNING 02: maximum depth increased for Node 1210660085
  WARNING 02: maximum depth increased for Node 1210880001
  WARNING 02: maximum depth increased for Node 1210880003
  WARNING 02: maximum depth increased for Node 1305640003
  WARNING 02: maximum depth increased for Node 1305640004
  WARNING 02: maximum depth increased for Node 1406910004
  WARNING 02: maximum depth increased for Node 1408660023
  WARNING 02: maximum depth increased for Node 2007640001
  WARNING 02: maximum depth increased for Node 2108640002
  WARNING 02: maximum depth increased for Node 2206660001
  WARNING 02: maximum depth increased for Node 2208370002
  WARNING 02: maximum depth increased for Node 2306390013
  WARNING 02: maximum depth increased for Node 2306390014
  WARNING 02: maximum depth increased for Node 2306910059
  WARNING 02: maximum depth increased for Node 2306910062
  WARNING 02: maximum depth increased for Node 2307660092
  WARNING 02: maximum depth increased for Node 2406390008
  WARNING 02: maximum depth increased for Node 2710640005
  WARNING 02: maximum depth increased for Node 3016660052
  WARNING 02: maximum depth increased for Node 803660082
  WARNING 02: maximum depth increased for Node 803660083
  WARNING 02: maximum depth increased for Node 803660086
  WARNING 02: maximum depth increased for Node 803660229
  WARNING 02: maximum depth increased for Node CBB2200
  WARNING 02: maximum depth increased for Node CBB2250
  WARNING 02: maximum depth increased for Node CBB3000
  WARNING 02: maximum depth increased for Node CBB3100
  WARNING 02: maximum depth increased for Node CBB3300
  WARNING 02: maximum depth increased for Node CBB3500
  WARNING 02: maximum depth increased for Node CBB3550
  WARNING 02: maximum depth increased for Node CBB3900
  WARNING 02: maximum depth increased for Node CHARLES003000
  WARNING 02: maximum depth increased for Node STONY1600
  WARNING 02: maximum depth increased for Node STONY3800
  WARNING 02: maximum depth increased for Node STONY5000
  WARNING 02: maximum depth increased for Node USGS011055566

  Analysis begun on:  Sat Nov 30 08:10:59 2019
  Analysis ended on:  Sat Nov 30 08:11:00 2019
  Total elapsed time: 00:00:01