
  EPA STORM WATER MANAGEMENT MODEL - VERSION 5.1 (Build 5.1.013)
  --------------------------------------------------------------

  
  ERROR 205: invalid keyword BC_File at line 45 of [FILE] section:
  USE BC_File "C:\August2005\ALCOSAN-SWM\SWM-BC-Aug01Jul02.dat"

  
  ERROR 209: undefined object GAGE700 at line 62 of [SUBCATCHMENT] section:
  C-02CIhgh        GAGE700          C-02-00-M1       0.26     85.0     106.77   8.15     0        SNOW-3          

  
  ERROR 209: undefined object GAGE700 at line 64 of [SUBCATCHMENT] section:
  C-02CImed        GAGE700          C-02-00-M1       0.6      85.0     161.86   2.15     0        SNOW-3          

  
  ERROR 209: undefined object GAGE700 at line 66 of [SUBCATCHMENT] section:
  C-02CIzero       GAGE700          C-02-00-M1       1.04     95.0     212.37   0.0      0        SNOW-3          

  
  ERROR 209: undefined object GAGE700 at line 68 of [SUBCATCHMENT] section:
  C-02CP           GAGE700          C-02-00-M1       1.51     0.0      256.32   1.79     0        SNOW-3          

  
  ERROR 209: undefined object GAGE701 at line 70 of [SUBCATCHMENT] section:
  C-03CIhgh        GAGE701          C-03-00-M1       1.14     85.0     222.71   8.75     0        SNOW-3          

  
  ERROR 209: undefined object GAGE701 at line 72 of [SUBCATCHMENT] section:
  C-03CImed        GAGE701          C-03-00-M1       0.79     85.0     185.74   3.1      0        SNOW-3          

  
  ERROR 209: undefined object GAGE701 at line 74 of [SUBCATCHMENT] section:
  C-03CIzero       GAGE701          C-03-00-M1       1.04     95.0     213.31   0.0      0        SNOW-3          

  
  ERROR 209: undefined object GAGE701 at line 76 of [SUBCATCHMENT] section:
  C-03CP           GAGE701          C-03-00-M1       5.37     0.0      483.53   6.18     0        SNOW-3          

  
  ERROR 209: undefined object GAGE702 at line 78 of [SUBCATCHMENT] section:
  C-04CIhgh        GAGE702          C-04-00-M1       1.33     85.0     241.04   8.82     0        SNOW-3          

  
  ERROR 209: undefined object GAGE702 at line 80 of [SUBCATCHMENT] section:
  C-04CImed        GAGE702          C-04-00-M1       6.67     85.0     538.98   2.05     0        SNOW-3          

  
  ERROR 209: undefined object GAGE702 at line 82 of [SUBCATCHMENT] section:
  C-04CIlow        GAGE702          C-04-00-M1       2.17     95.0     307.73   0.9      0        SNOW-3          

  
  ERROR 209: undefined object GAGE702 at line 84 of [SUBCATCHMENT] section:
  C-04CIzero       GAGE702          C-04-00-M1       8.7      95.0     615.47   0.0      0        SNOW-3          

  
  ERROR 209: undefined object GAGE702 at line 86 of [SUBCATCHMENT] section:
  C-04CP           GAGE702          C-04-00-M1       10.56    0.0      678.31   2.01     0        SNOW-3          

  
  ERROR 209: undefined object GAGE703 at line 88 of [SUBCATCHMENT] section:
  C-05CIhgh        GAGE703          C-05-00-M1       11.99    85.0     3613.15  10.09    0        SNOW-3          

  
  ERROR 209: undefined object GAGE703 at line 90 of [SUBCATCHMENT] section:
  C-05CImed        GAGE703          C-05-00-M1       11.97    85.0     3610.05  3.31     0        SNOW-3          

  
  ERROR 209: undefined object GAGE703 at line 92 of [SUBCATCHMENT] section:
  C-05CIzero       GAGE703          C-05-00-M1       6.98     95.0     2756.35  0.0      0        SNOW-3          

  
  ERROR 209: undefined object GAGE703 at line 94 of [SUBCATCHMENT] section:
  C-05CP           GAGE703          C-05-00-M1       63.7     0.0      8328.7   9.09     0        SNOW-3          

  
  ERROR 209: undefined object GAGE703 at line 96 of [SUBCATCHMENT] section:
  C-05ACIhgh       GAGE703          C-05-04-M1       1.58     85.0     1310.55  9.38     0        SNOW-3          

  
  ERROR 209: undefined object GAGE703 at line 98 of [SUBCATCHMENT] section:
  C-05ACImed       GAGE703          C-05-04-M1       8.69     85.0     3076.1   2.5      0        SNOW-3          

  
  ERROR 209: undefined object GAGE703 at line 100 of [SUBCATCHMENT] section:
  C-05ACIlow       GAGE703          C-05-04-M1       0.63     95.0     827.65   0.98     0        SNOW-3          

  
  ERROR 209: undefined object GAGE703 at line 102 of [SUBCATCHMENT] section:
  C-05ACIzero      GAGE703          C-05-04-M1       4.18     95.0     2134.25  0.0      0        SNOW-3          

  
  ERROR 209: undefined object GAGE703 at line 104 of [SUBCATCHMENT] section:
  C-05ACP          GAGE703          C-05-04-M1       15.85    0.0      4154.8   10.15    0        SNOW-3          

  
  ERROR 209: undefined object GAGE704 at line 106 of [SUBCATCHMENT] section:
  C-06CIhgh        GAGE704          C-06-00-M1       0.11     85.0     70.71    10.73    0        SNOW-3          

  
  ERROR 209: undefined object GAGE704 at line 108 of [SUBCATCHMENT] section:
  C-06CImed        GAGE704          C-06-00-M1       1.43     85.0     249.4    3.02     0        SNOW-3          

  
  ERROR 209: undefined object GAGE704 at line 110 of [SUBCATCHMENT] section:
  C-06CIlow        GAGE704          C-06-00-M1       0.5      95.0     147.65   0.96     0        SNOW-3          

  
  ERROR 209: undefined object GAGE704 at line 112 of [SUBCATCHMENT] section:
  C-06CIzero       GAGE704          C-06-00-M1       3.37     95.0     383.41   0.0      0        SNOW-3          

  
  ERROR 209: undefined object GAGE704 at line 114 of [SUBCATCHMENT] section:
  C-06CP           GAGE704          C-06-00-M1       0.96     0.0      204.69   1.77     0        SNOW-3          

  
  ERROR 209: undefined object GAGE705 at line 116 of [SUBCATCHMENT] section:
  C-07CIhgh        GAGE705          C-07-00-M1       14.36    85.0     790.82   8.86     0        SNOW-3          

  
  ERROR 209: undefined object GAGE705 at line 118 of [SUBCATCHMENT] section:
  C-07CImed        GAGE705          C-07-00-M1       12.12    85.0     726.64   3.63     0        SNOW-3          

  
  ERROR 209: undefined object GAGE705 at line 120 of [SUBCATCHMENT] section:
  C-07CIzero       GAGE705          C-07-00-M1       9.44     95.0     641.33   0.0      0        SNOW-3          

  
  ERROR 209: undefined object GAGE705 at line 122 of [SUBCATCHMENT] section:
  C-07CP           GAGE705          C-07-00-M1       112.73   0.0      2215.94  11.68    0        SNOW-3          

  
  ERROR 209: undefined object GAGE706 at line 124 of [SUBCATCHMENT] section:
  C-08CIhgh        GAGE706          C-08-00-M1       6.73     85.0     541.48   10.8     0        SNOW-3          

  
  ERROR 209: undefined object GAGE706 at line 126 of [SUBCATCHMENT] section:
  C-08CImed        GAGE706          C-08-00-M1       4.58     85.0     446.88   3.21     0        SNOW-3          

  
  ERROR 209: undefined object GAGE706 at line 128 of [SUBCATCHMENT] section:
  C-08CIzero       GAGE706          C-08-00-M1       3.17     95.0     371.75   0.0      0        SNOW-3          

  
  ERROR 209: undefined object GAGE706 at line 130 of [SUBCATCHMENT] section:
  C-08CP           GAGE706          C-08-00-M1       27.02    0.0      1084.99  8.84     0        SNOW-3          

  
  ERROR 209: undefined object GAGE707 at line 132 of [SUBCATCHMENT] section:
  C-09CIhgh        GAGE707          C-09-00-M1       29.92    85.0     1141.67  9.45     0        SNOW-3          

  
  ERROR 209: undefined object GAGE707 at line 134 of [SUBCATCHMENT] section:
  C-09CImed        GAGE707          C-09-00-M1       38.45    85.0     1294.18  2.62     0        SNOW-3          

  
  ERROR 209: undefined object GAGE707 at line 136 of [SUBCATCHMENT] section:
  C-09CIlow        GAGE707          C-09-00-M1       1.23     95.0     231.52   0.96     0        SNOW-3          

  
  ERROR 209: undefined object GAGE707 at line 138 of [SUBCATCHMENT] section:
  C-09CIzero       GAGE707          C-09-00-M1       19.06    95.0     911.1    0.0      0        SNOW-3          

  
  ERROR 209: undefined object GAGE707 at line 140 of [SUBCATCHMENT] section:
  C-09CP           GAGE707          C-09-00-M1       140.43   0.0      2473.32  8.36     0        SNOW-3          

  
  ERROR 209: undefined object GAGE708 at line 142 of [SUBCATCHMENT] section:
  C-10CIhgh        GAGE708          C-10-00-M1       0.35     85.0     123.29   8.76     0        SNOW-3          

  
  ERROR 209: undefined object GAGE708 at line 144 of [SUBCATCHMENT] section:
  C-10CImed        GAGE708          C-10-00-M1       5.91     85.0     507.35   1.8      0        SNOW-3          

  
  ERROR 209: undefined object GAGE708 at line 146 of [SUBCATCHMENT] section:
  C-10CIlow        GAGE708          C-10-00-M1       1.27     95.0     235.16   0.85     0        SNOW-3          

  
  ERROR 209: undefined object GAGE708 at line 148 of [SUBCATCHMENT] section:
  C-10CIzero       GAGE708          C-10-00-M1       8.42     95.0     605.48   0.0      0        SNOW-3          

  
  ERROR 209: undefined object GAGE708 at line 150 of [SUBCATCHMENT] section:
  C-10CP           GAGE708          C-10-00-M1       15.19    0.0      813.45   3.53     0        SNOW-3          

  
  ERROR 209: undefined object GAGE709 at line 152 of [SUBCATCHMENT] section:
  C-11CIhgh        GAGE709          C-11-00-M1       20.87    85.0     953.36   8.31     0        SNOW-3          

  
  ERROR 209: undefined object GAGE709 at line 154 of [SUBCATCHMENT] section:
  C-11CImed        GAGE709          C-11-00-M1       11.89    85.0     719.58   3.77     0        SNOW-3          

  
  ERROR 209: undefined object GAGE709 at line 156 of [SUBCATCHMENT] section:
  C-11CIzero       GAGE709          C-11-00-M1       7.23     95.0     561.25   0.0      0        SNOW-3          

  
  ERROR 209: undefined object GAGE709 at line 158 of [SUBCATCHMENT] section:
  C-11CP           GAGE709          C-11-00-M1       174.76   0.0      2759.09  11.0     0        SNOW-3          

  
  ERROR 209: undefined object GAGE710 at line 160 of [SUBCATCHMENT] section:
  C-12CIhgh        GAGE710          C-12-00-M1       5.49     85.0     489.08   7.12     0        SNOW-3          

  
  ERROR 209: undefined object GAGE710 at line 162 of [SUBCATCHMENT] section:
  C-12CImed        GAGE710          C-12-00-M1       9.74     85.0     651.46   3.42     0        SNOW-3          

  
  ERROR 209: undefined object GAGE710 at line 164 of [SUBCATCHMENT] section:
  C-12CIzero       GAGE710          C-12-00-M1       3.65     95.0     398.75   0.0      0        SNOW-3          

  
  ERROR 209: undefined object GAGE710 at line 166 of [SUBCATCHMENT] section:
  C-12CP           GAGE710          C-12-00-M1       69.19    0.0      1736.09  5.28     0        SNOW-3          

  
  ERROR 209: undefined object GAGE711 at line 168 of [SUBCATCHMENT] section:
  C-13CIhgh        GAGE711          C-13-00-M1       9.34     85.0     637.73   8.85     0        SNOW-3          

  
  ERROR 209: undefined object GAGE711 at line 170 of [SUBCATCHMENT] section:
  C-13CImed        GAGE711          C-13-00-M1       11.37    85.0     703.85   3.1      0        SNOW-3          

  
  ERROR 209: undefined object GAGE711 at line 172 of [SUBCATCHMENT] section:
  C-13CIlow        GAGE711          C-13-00-M1       0.03     95.0     33.17    0.93     0        SNOW-3          

  
  ERROR 209: undefined object GAGE711 at line 174 of [SUBCATCHMENT] section:
  C-13CIzero       GAGE711          C-13-00-M1       6.81     95.0     544.61   0.0      0        SNOW-3          

  
  ERROR 209: undefined object GAGE711 at line 176 of [SUBCATCHMENT] section:
  C-13CP           GAGE711          C-13-00-M1       61.85    0.0      1641.46  11.07    0        SNOW-3          

  
  ERROR 209: undefined object GAGE711 at line 178 of [SUBCATCHMENT] section:
  C-13-02CIhgh     GAGE711          C-13-02-M1       1.53     85.0     258.46   7.44     0        SNOW-3          

  
  ERROR 209: undefined object GAGE711 at line 180 of [SUBCATCHMENT] section:
  C-13-02CImed     GAGE711          C-13-02-M1       6.98     85.0     551.36   2.99     0        SNOW-3          

  
  ERROR 209: undefined object GAGE711 at line 182 of [SUBCATCHMENT] section:
  C-13-02CIzero    GAGE711          C-13-02-M1       3.76     95.0     404.85   0.0      0        SNOW-3          

  
  ERROR 209: undefined object GAGE711 at line 184 of [SUBCATCHMENT] section:
  C-13-02CP        GAGE711          C-13-02-M1       35.74    0.0      1247.68  3.18     0        SNOW-3          

  
  ERROR 209: undefined object GAGE764 at line 186 of [SUBCATCHMENT] section:
  C-13/C-09CIhgh   GAGE764          C-09-00-M1       12.1     85.0     726.09   9.17     0        SNOW-3          

  
  ERROR 209: undefined object GAGE764 at line 188 of [SUBCATCHMENT] section:
  C-13/C-09CImed   GAGE764          C-09-00-M1       26.06    85.0     1065.36  2.29     0        SNOW-3          

  
  ERROR 209: undefined object GAGE764 at line 190 of [SUBCATCHMENT] section:
  C-13/C-09CIlow   GAGE764          C-09-00-M1       0.64     95.0     167.33   0.95     0        SNOW-3          

  
  ERROR 209: undefined object GAGE764 at line 192 of [SUBCATCHMENT] section:
  C-13/C-09CIzero  GAGE764          C-09-00-M1       10.56    95.0     678.23   0.0      0        SNOW-3          

  
  ERROR 209: undefined object GAGE764 at line 194 of [SUBCATCHMENT] section:
  C-13/C-09CP      GAGE764          C-09-00-M1       130.85   0.0      2387.45  11.62    0        SNOW-3          

  
  ERROR 209: undefined object GAGE712 at line 196 of [SUBCATCHMENT] section:
  C-14CIhgh        GAGE712          C-14-00-M1       2.52     85.0     331.21   7.05     0        SNOW-3          

  
  ERROR 209: undefined object GAGE712 at line 198 of [SUBCATCHMENT] section:
  C-14CImed        GAGE712          C-14-00-M1       19.22    85.0     914.99   2.21     0        SNOW-3          

  
  ERROR 209: undefined object GAGE712 at line 200 of [SUBCATCHMENT] section:
  C-14CIlow        GAGE712          C-14-00-M1       6.2      95.0     519.52   0.88     0        SNOW-3          

  
  ERROR 209: undefined object GAGE712 at line 202 of [SUBCATCHMENT] section:
  C-14CIzero       GAGE712          C-14-00-M1       23.14    95.0     1003.89  0.0      0        SNOW-3          

  
  ERROR 209: undefined object GAGE712 at line 204 of [SUBCATCHMENT] section:
  C-14CP           GAGE712          C-14-00-M1       127.64   0.0      2357.99  7.19     0        SNOW-3          

  
  ERROR 209: undefined object GAGE713 at line 206 of [SUBCATCHMENT] section:
  C-15CIhgh        GAGE713          C-15-00-M1       14.99    85.0     807.96   8.29     0        SNOW-3          

  
  ERROR 209: undefined object GAGE713 at line 208 of [SUBCATCHMENT] section:
  C-15CImed        GAGE713          C-15-00-M1       23.46    85.0     1010.89  2.79     0        SNOW-3          

  
  ERROR 209: undefined object GAGE713 at line 210 of [SUBCATCHMENT] section:
  C-15CIlow        GAGE713          C-15-00-M1       0.16     95.0     83.67    0.95     0        SNOW-3          

  
  ERROR 209: undefined object GAGE713 at line 212 of [SUBCATCHMENT] section:
  C-15CIzero       GAGE713          C-15-00-M1       11.05    95.0     693.9    0.0      0        SNOW-3          

  
  ERROR 209: undefined object GAGE713 at line 214 of [SUBCATCHMENT] section:
  C-15CP           GAGE713          C-15-00-M1       184.8    0.0      2837.25  9.9      0        SNOW-3          

  
  ERROR 209: undefined object GAGE715 at line 216 of [SUBCATCHMENT] section:
  C-19CIhgh        GAGE715          C-19-00-M1       30.08    85.0     1144.64  8.8      0        SNOW-3          

  
  ERROR 209: undefined object GAGE715 at line 218 of [SUBCATCHMENT] section:
  C-19CImed        GAGE715          C-19-00-M1       36.55    85.0     1261.74  2.93     0        SNOW-3          

  
  ERROR 209: undefined object GAGE715 at line 220 of [SUBCATCHMENT] section:
  C-19CIlow        GAGE715          C-19-00-M1       0.04     95.0     40.0     0.98     0        SNOW-3          

  
  ERROR 209: undefined object GAGE715 at line 222 of [SUBCATCHMENT] section:
  C-19CIzero       GAGE715          C-19-00-M1       22.66    95.0     993.58   0.0      0        SNOW-3          

  
  ERROR 209: undefined object GAGE715 at line 224 of [SUBCATCHMENT] section:
  C-19CP           GAGE715          C-19-00-M1       232.03   0.0      3179.18  7.77     0        SNOW-3          

  
  ERROR 209: undefined object GAGE717 at line 226 of [SUBCATCHMENT] section:
  C-20CIhgh        GAGE717          C-20-00-M1       8.9      85.0     622.66   8.58     0        SNOW-3          

  
  ERROR 209: undefined object GAGE717 at line 228 of [SUBCATCHMENT] section:
  C-20CImed        GAGE717          C-20-00-M1       16.26    85.0     841.55   3.14     0        SNOW-3          

  
  ERROR 209: undefined object GAGE717 at line 230 of [SUBCATCHMENT] section:
  C-20CIzero       GAGE717          C-20-00-M1       9.04     95.0     627.61   0.0      0        SNOW-3          

  
  ERROR 209: undefined object GAGE717 at line 232 of [SUBCATCHMENT] section:
  C-20CP           GAGE717          C-20-00-M1       85.91    0.0      1934.45  8.05     0        SNOW-3          

  
  ERROR 209: undefined object GAGE720 at line 234 of [SUBCATCHMENT] section:
  C-22CIhgh        GAGE720          C-22-00-M1       37.45    85.0     1277.18  8.98     0        SNOW-3          

  
  ERROR 209: undefined object GAGE720 at line 236 of [SUBCATCHMENT] section:
  C-22CImed        GAGE720          C-22-00-M1       29.27    85.0     1129.2   3.47     0        SNOW-3          

  
  ERROR 209: undefined object GAGE720 at line 238 of [SUBCATCHMENT] section:
  C-22CIzero       GAGE720          C-22-00-M1       19.19    95.0     914.22   0.0      0        SNOW-3          

  
  ERROR 209: undefined object GAGE720 at line 240 of [SUBCATCHMENT] section:
  C-22CP           GAGE720          C-22-00-M1       191.05   0.0      2884.79  8.48     0        SNOW-3          

  
  ERROR 209: undefined object GAGE721 at line 242 of [SUBCATCHMENT] section:
  C-23CIhgh        GAGE721          C-23-00-M1       1.49     85.0     254.56   7.93     0        SNOW-3          

  
  ERROR 209: undefined object GAGE721 at line 244 of [SUBCATCHMENT] section:
  C-23CImed        GAGE721          C-23-00-M1       1.45     85.0     251.2    2.91     0        SNOW-3          

  
  ERROR 209: undefined object GAGE721 at line 246 of [SUBCATCHMENT] section:
  C-23CIzero       GAGE721          C-23-00-M1       1.93     95.0     290.0    0.0      0        SNOW-3          

  
  ERROR 209: undefined object GAGE721 at line 248 of [SUBCATCHMENT] section:
  C-23CP           GAGE721          C-23-00-M1       12.89    0.0      749.33   6.01     0        SNOW-3          

  
  ERROR 209: undefined object GAGE722 at line 250 of [SUBCATCHMENT] section:
  C-24CIhgh        GAGE722          C-24-00-M1       8.8      85.0     619.27   8.87     0        SNOW-3          

  
  ERROR 209: undefined object GAGE722 at line 252 of [SUBCATCHMENT] section:
  C-24CImed        GAGE722          C-24-00-M1       6.43     85.0     529.06   3.55     0        SNOW-3          

  
  ERROR 209: undefined object GAGE722 at line 254 of [SUBCATCHMENT] section:
  C-24CIzero       GAGE722          C-24-00-M1       4.94     95.0     463.79   0.0      0        SNOW-3          

  
  ERROR 209: undefined object GAGE722 at line 256 of [SUBCATCHMENT] section:
  C-24CP           GAGE722          C-24-00-M1       82.13    0.0      1891.48  9.39     0        SNOW-3          

  
  ERROR 209: undefined object GAGE723 at line 258 of [SUBCATCHMENT] section:
  C-25CIhgh        GAGE723          C-25-00-M1       41.33    85.0     1341.79  8.7      0        SNOW-3          

  
  Maximum error count exceeded.

  Analysis begun on:  Sat Nov 30 08:11:01 2019
  Analysis ended on:  Sat Nov 30 08:11:01 2019
  Total elapsed time: < 1 sec