
  EPA STORM WATER MANAGEMENT MODEL - VERSION 5.1 (Build 5.1.013)
  --------------------------------------------------------------

   CID OCP - Design Storm D 
  
  WARNING 04: minimum elevation drop used for Conduit 030-052
  
  *************
  Element Count
  *************
  Number of rain gages ...... 1
  Number of subcatchments ... 53
  Number of nodes ........... 203
  Number of links ........... 206
  Number of pollutants ...... 0
  Number of land uses ....... 0
  
  
  ****************
  Raingage Summary
  ****************
                                                      Data       Recording
  Name                 Data Source                    Type       Interval 
  ------------------------------------------------------------------------
  EventD               RN#14                          CUMULATIVE  15 min.
  
  
  ********************
  Subcatchment Summary
  ********************
  Name                       Area     Width   %Imperv    %Slope Rain Gage            Outlet              
  -----------------------------------------------------------------------------------------------------------
  S029-005#1                17.11    937.11      8.20    0.1000 EventD               S029-005            
  S029-007#1                 6.04    523.64      8.10    0.1000 EventD               S029-007            
  S029-010#1                 7.36    446.21     20.40    0.1000 EventD               S029-010            
  S029-016#1                17.28    656.46     22.50    3.1600 EventD               S029-016            
  S029-024#1                15.48    671.59     64.60    3.7600 EventD               S029-024            
  S029-026#1                 7.82    297.35     20.40    6.4600 EventD               S029-026            
  S029-071#1                14.84    827.13     36.60    0.1000 EventD               S029-071            
  S029-827#1                15.87    594.72     59.40    3.0600 EventD               S029-827            
  S030-025#1                 4.71    760.87     29.10    0.8000 EventD               S030-025            
  S030-039#1                11.60    526.83     65.90    0.2500 EventD               S030-039            
  S030-053#1                11.37    451.66     72.90    0.1100 EventD               S030-053            
  S030-065#1                 5.75    410.01     55.10    0.1000 EventD               S030-065            
  S030-074#1                31.40    964.93     32.00    0.6500 EventD               S030-074            
  S030-080#1                 6.69    421.25     52.90    0.1000 EventD               S030-080            
  S030-098#1                54.50   1337.68     71.60    0.1700 EventD               S030-098            
  S030-106#1                 4.12    336.21     68.40    0.1000 EventD               S030-106            
  S030-113#1                13.61    471.02     66.60    0.0400 EventD               S030-113            
  S030-117#1                 9.87    505.19     73.40    0.2400 EventD               S030-117            
  S030-124#1                 8.77    498.96     24.00    0.1600 EventD               S030-124            
  S030-126#1                 6.50    506.84     62.50    0.1000 EventD               S030-126            
  S030-128#1                 8.10    442.01     47.60    0.1000 EventD               S030-128            
  S030-132#1                 3.61    280.94     82.10    0.1000 EventD               S030-132            
  S030-137#1                 5.23    212.73     67.90    2.5400 EventD               S030-137            
  S030-153#1                22.15    589.01     39.90    3.6600 EventD               S030-153            
  S030-166#1                 6.06    351.25     21.10   20.7100 EventD               S030-166            
  S030-273#1                 1.39    120.23     28.30    2.2900 EventD               S030-273            
  S030-281#1                 0.43     88.46     40.30    7.9800 EventD               S030-281            
  S030-301#1                13.38    484.08     66.50    1.9200 EventD               S030-301            
  S030-308#1                 8.63    388.41     58.80    5.7200 EventD               S030-308            
  S030-323#1                11.94    559.64     76.60    1.8200 EventD               S030-323            
  S030-342#1                10.13    478.21     43.40    9.3200 EventD               S030-342            
  S030-366#1                26.01    665.60     74.90    5.4600 EventD               S030-366            
  S030-397#1                 4.38    315.11     84.70    6.2400 EventD               S030-397            
  S030-408#1                 1.76    118.76     52.80    4.9600 EventD               S030-408            
  S030-420#1                 4.18    207.48     40.40    5.2500 EventD               S030-420            
  S030-426#1                 4.38    321.24     53.80    2.7700 EventD               S030-426            
  S030-433#1                 1.86    174.17     61.20    5.1000 EventD               S030-433            
  S030-458#1                 8.75    443.99     44.80    3.9500 EventD               S030-458            
  S030-538#1                 5.77    291.77     81.30    0.0300 EventD               S030-538            
  S030-559#1                 4.66    229.13     65.00    1.3500 EventD               S030-559            
  S030-569#1                 0.62    146.62     61.60    1.6000 EventD               S030-569            
  S030-592#1                 7.48    269.13     46.80    6.6800 EventD               S030-592            
  S030-679#1                18.19    559.82     36.30    0.5000 EventD               S030-679            
  S030-691#1                 2.28    229.73     44.90    0.1000 EventD               S030-691            
  S030-693#1                10.05    707.90     20.40    0.3600 EventD               S030-693            
  S030-698#1                15.40    793.64     63.70    0.1000 EventD               S030-698            
  S030-700#1                14.55    552.48     39.20    0.0100 EventD               S030-700            
  S030-704Ta#1              20.82   1181.39     31.50    0.1000 EventD               S030-704Ta          
  S030-851#1                 3.97    253.54     42.00    1.8200 EventD               S030-851            
  S030-883#1                28.51    652.17     80.90    0.1000 EventD               S030-883            
  S031-063#1                15.11    339.13     13.90    3.8700 EventD               S031-063            
  S033-064Ta#1               7.15    625.97     12.30    8.4600 EventD               S033-064Ta          
  S030-337#1                10.00    491.25     62.50    0.1000 EventD               S030-337            
  
  
  ************
  Node Summary
  ************
                                           Invert      Max.    Ponded    External
  Name                 Type                 Elev.     Depth      Area    Inflow  
  -------------------------------------------------------------------------------
  S028-001             JUNCTION            813.65     21.00       0.0    Yes
  S028-002             JUNCTION            809.03     18.16       0.0    Yes
  S028-307             JUNCTION            804.70     21.20       0.0    Yes
  S029-005             JUNCTION            739.22     11.30       0.0    Yes
  S029-006             JUNCTION            738.82     11.92       0.0    Yes
  S029-007             JUNCTION            738.50     11.43       0.0    Yes
  S029-008             JUNCTION            738.20     11.53       0.0    Yes
  S029-009             JUNCTION            737.76     11.53       0.0    Yes
  S029-010             JUNCTION            737.00     11.69       0.0    Yes
  S029-011             JUNCTION            736.40     12.83       0.0    Yes
  S029-014             JUNCTION            739.03     11.60       0.0    Yes
  S029-015             JUNCTION            740.96      9.30       0.0    Yes
  S029-016             JUNCTION            741.68      8.54       0.0    Yes
  S029-017             JUNCTION            741.97      8.60       0.0    Yes
  S029-018             JUNCTION            743.34      8.66       0.0    Yes
  S029-020             JUNCTION            741.82      8.80       0.0    Yes
  S029-021             JUNCTION            742.30      8.80       0.0    Yes
  S029-024             JUNCTION            802.99     22.37       0.0    Yes
  S029-025             JUNCTION            785.70     17.60       0.0    Yes
  S029-026             JUNCTION            759.31      9.85       0.0    Yes
  S029-027             JUNCTION            741.88     13.50       0.0
  S029-058             JUNCTION            747.42     24.50       0.0    Yes
  S029-059             JUNCTION            747.02      7.27       0.0    Yes
  S029-060             JUNCTION            746.23     11.74       0.0    Yes
  S029-061             JUNCTION            745.90      8.33       0.0    Yes
  S029-062             JUNCTION            744.92      4.00       0.0    Yes
  S029-063             JUNCTION            743.99      7.90       0.0    Yes
  S029-064             JUNCTION            744.10     18.70       0.0    Yes
  S029-065             JUNCTION            729.85     20.87       0.0    Yes
  S029-066             JUNCTION            735.05     15.96       0.0    Yes
  S029-067             JUNCTION            737.00     14.07       0.0    Yes
  S029-068             JUNCTION            736.44     13.10       0.0    Yes
  S029-071             JUNCTION            722.14     28.65       0.0    Yes
  S029-073             JUNCTION            730.12     21.00       0.0    Yes
  S029-075             JUNCTION            793.35     18.60       0.0    Yes
  S029-085             JUNCTION            799.67     16.00       0.0    Yes
  S029-304             JUNCTION            777.37     21.00       0.0    Yes
  S029-620             JUNCTION            719.17     31.00       0.0
  S029-825             JUNCTION            747.22     28.80       0.0    Yes
  S029-827             JUNCTION            761.00     11.00       0.0    Yes
  S030-025             JUNCTION            735.57     11.48       0.0    Yes
  S030-032             JUNCTION            735.67     13.16       0.0    Yes
  S030-035             JUNCTION            734.79     13.46       0.0    Yes
  S030-039             JUNCTION            733.59     13.65       0.0    Yes
  S030-041             JUNCTION            734.51     13.65       0.0    Yes
  S030-050             JUNCTION            733.97     17.95       0.0    Yes
  S030-052             JUNCTION            732.60     13.43       0.0    Yes
  S030-053             JUNCTION            732.71     11.97       0.0    Yes
  S030-054             JUNCTION            733.28     12.08       0.0    Yes
  S030-057             JUNCTION            740.23      9.50       0.0    Yes
  S030-059             JUNCTION            733.34     13.55       0.0    Yes
  S030-065             JUNCTION            732.29     16.95       0.0    Yes
  S030-066             JUNCTION            732.57     16.70       0.0    Yes
  S030-068             JUNCTION            737.85     10.62       0.0    Yes
  S030-074             JUNCTION            735.41     11.83       0.0    Yes
  S030-076             JUNCTION            735.38     11.96       0.0    Yes
  S030-080             JUNCTION            731.41     17.82       0.0    Yes
  S030-098             JUNCTION            731.37     14.63       0.0    Yes
  S030-102             JUNCTION            730.57     13.73       0.0    Yes
  S030-106             JUNCTION            730.60     16.59       0.0    Yes
  S030-107             JUNCTION            731.10     16.20       0.0    Yes
  S030-109             JUNCTION            732.77     15.04       0.0    Yes
  S030-110             JUNCTION            736.76     12.60       0.0    Yes
  S030-111             JUNCTION            737.59     14.00       0.0    Yes
  S030-112             JUNCTION            734.70     13.60       0.0    Yes
  S030-113             JUNCTION            731.13     17.00       0.0    Yes
  S030-116             JUNCTION            730.29     16.07       0.0    Yes
  S030-117             JUNCTION            729.26     17.15       0.0    Yes
  S030-118             JUNCTION            729.22     16.14       0.0    Yes
  S030-119             JUNCTION            728.43     15.82       0.0    Yes
  S030-120             JUNCTION            727.74     17.92       0.0    Yes
  S030-123             JUNCTION            729.01     17.60       0.0    Yes
  S030-124             JUNCTION            735.39     13.69       0.0    Yes
  S030-125             JUNCTION            735.23     13.40       0.0    Yes
  S030-126             JUNCTION            734.68     13.78       0.0    Yes
  S030-127             JUNCTION            733.61     15.23       0.0    Yes
  S030-128             JUNCTION            730.72     16.96       0.0    Yes
  S030-129             JUNCTION            723.42     23.20       0.0    Yes
  S030-130             JUNCTION            729.80     19.76       0.0    Yes
  S030-131             JUNCTION            731.95     15.85       0.0    Yes
  S030-132             JUNCTION            736.80     11.00       0.0    Yes
  S030-133             JUNCTION            728.81     19.19       0.0    Yes
  S030-134             JUNCTION            729.78     16.51       0.0    Yes
  S030-137             JUNCTION            731.50     15.89       0.0    Yes
  S030-148             JUNCTION            735.05     12.30       0.0    Yes
  S030-149             JUNCTION            735.53     11.10       0.0    Yes
  S030-150             JUNCTION            735.97     14.30       0.0    Yes
  S030-151             JUNCTION            737.33     14.24       0.0    Yes
  S030-152             JUNCTION            742.16     11.88       0.0    Yes
  S030-153             JUNCTION            741.62     13.50       0.0    Yes
  S030-166             JUNCTION            747.30      9.00       0.0    Yes
  S030-167             JUNCTION            743.76      7.89       0.0    Yes
  S030-273             JUNCTION            905.25     33.22       0.0    Yes
  S030-281             JUNCTION            901.55     15.75       0.0    Yes
  S030-284             JUNCTION            897.79     15.15       0.0    Yes
  S030-301             JUNCTION            894.46     16.20       0.0    Yes
  S030-308             JUNCTION            872.53     22.40       0.0    Yes
  S030-309             JUNCTION            876.37     21.60       0.0    Yes
  S030-310             JUNCTION            881.44     20.55       0.0    Yes
  S030-312             JUNCTION            889.76     18.90       0.0    Yes
  S030-323             JUNCTION            893.23     30.40       0.0    Yes
  S030-342             JUNCTION            839.32     27.20       0.0    Yes
  S030-351             JUNCTION            860.03     45.40       0.0    Yes
  S030-352             JUNCTION            870.87     42.18       0.0    Yes
  S030-365             JUNCTION            851.50     36.60       0.0    Yes
  S030-366             JUNCTION            830.70     31.00       0.0    Yes
  S030-375             JUNCTION            773.06      9.30       0.0    Yes
  S030-376             JUNCTION            767.12     10.40       0.0    Yes
  S030-378             JUNCTION            753.30     21.30       0.0    Yes
  S030-380             JUNCTION            804.00      7.30       0.0    Yes
  S030-381             JUNCTION            792.96     11.00       0.0    Yes
  S030-382             JUNCTION            804.63     14.40       0.0    Yes
  S030-388             JUNCTION            821.24     16.10       0.0    Yes
  S030-389             JUNCTION            806.36     10.10       0.0    Yes
  S030-390             JUNCTION            804.79     10.70       0.0    Yes
  S030-397             JUNCTION            817.47     11.00       0.0    Yes
  S030-397A            JUNCTION            806.82     21.18       0.0    Yes
  S030-400             JUNCTION            805.98      6.60       0.0    Yes
  S030-408             JUNCTION            776.41      7.45       0.0    Yes
  S030-409             JUNCTION            769.91     12.40       0.0    Yes
  S030-411             JUNCTION            758.27     22.64       0.0    Yes
  S030-412             JUNCTION            743.70     37.00       0.0    Yes
  S030-413             JUNCTION            765.69     18.15       0.0    Yes
  S030-414             JUNCTION            800.33     29.40       0.0    Yes
  S030-419             JUNCTION            782.54     15.50       0.0    Yes
  S030-420             JUNCTION            791.96     11.94       0.0    Yes
  S030-423             JUNCTION            799.05     10.30       0.0    Yes
  S030-424             JUNCTION            801.07     17.96       0.0    Yes
  S030-425             JUNCTION            806.57     23.70       0.0    Yes
  S030-426             JUNCTION            826.73     36.80       0.0    Yes
  S030-427             JUNCTION            853.39     11.30       0.0    Yes
  S030-428             JUNCTION            861.64      8.20       0.0    Yes
  S030-432             JUNCTION            860.28      6.68       0.0    Yes
  S030-433             JUNCTION            868.32      9.35       0.0    Yes
  S030-455             JUNCTION            903.38     32.42       0.0    Yes
  S030-456             JUNCTION            902.06     26.32       0.0    Yes
  S030-457             JUNCTION            907.27     13.46       0.0    Yes
  S030-458             JUNCTION            900.52     20.32       0.0    Yes
  S030-459             JUNCTION            872.23     41.55       0.0    Yes
  S030-460             JUNCTION            863.02     38.50       0.0    Yes
  S030-461             JUNCTION            841.16     25.70       0.0    Yes
  S030-462             JUNCTION            801.08     10.00       0.0    Yes
  S030-529             JUNCTION            739.79      6.85       0.0    Yes
  S030-531             JUNCTION            734.50     13.78       0.0    Yes
  S030-538             JUNCTION            734.60     14.13       0.0    Yes
  S030-539             JUNCTION            734.98     13.81       0.0    Yes
  S030-542             JUNCTION            735.31     14.30       0.0    Yes
  S030-544             JUNCTION            736.00     15.10       0.0    Yes
  S030-545             JUNCTION            736.14     17.58       0.0    Yes
  S030-555             JUNCTION            736.81     15.02       0.0    Yes
  S030-559             JUNCTION            737.03     13.68       0.0    Yes
  S030-564             JUNCTION            737.08     13.72       0.0    Yes
  S030-566             JUNCTION            738.08      9.12       0.0    Yes
  S030-569             JUNCTION            738.79      5.60       0.0    Yes
  S030-581             JUNCTION            735.24     14.10       0.0    Yes
  S030-583             JUNCTION            848.21     13.70       0.0    Yes
  S030-584             JUNCTION            851.56     11.10       0.0    Yes
  S030-592             JUNCTION            852.96      9.00       0.0    Yes
  S030-679             JUNCTION            739.63     13.00       0.0    Yes
  S030-680             JUNCTION            739.00     19.00       0.0    Yes
  S030-691             JUNCTION            730.90     18.52       0.0    Yes
  S030-692             JUNCTION            729.90     20.23       0.0    Yes
  S030-693             JUNCTION            728.90     18.85       0.0    Yes
  S030-694             JUNCTION            729.80     17.68       0.0    Yes
  S030-695             JUNCTION            729.69     17.79       0.0    Yes
  S030-696             JUNCTION            729.10     18.38       0.0    Yes
  S030-698             JUNCTION            728.30     23.00       0.0    Yes
  S030-699             JUNCTION            727.80     23.50       0.0    Yes
  S030-700             JUNCTION            726.20     22.06       0.0    Yes
  S030-701             JUNCTION            726.80     23.50       0.0    Yes
  S030-702             JUNCTION            726.20     24.10       0.0    Yes
  S030-703             JUNCTION            725.70     21.12       0.0    Yes
  S030-704             JUNCTION            725.20     22.09       0.0    Yes
  S030-704Ta           JUNCTION            724.63     25.67       0.0    Yes
  S030-704Tb           JUNCTION            724.80     26.00       0.0    Yes
  S030-705             JUNCTION            725.10     21.70       0.0    Yes
  S030-706             JUNCTION            764.85     17.84       0.0    Yes
  S030-715             JUNCTION            742.20     12.52       0.0    Yes
  S030-716             JUNCTION            742.42     11.96       0.0    Yes
  S030-717             JUNCTION            739.80     12.62       0.0    Yes
  S030-718             JUNCTION            734.00     14.00       0.0    Yes
  S030-721             JUNCTION            803.25     20.46       0.0    Yes
  S030-851             JUNCTION            806.28      7.00       0.0    Yes
  S030-854             JUNCTION            746.78      4.20       0.0    Yes
  S030-883             JUNCTION            736.96     13.61       0.0    Yes
  S030-884             JUNCTION            735.26     13.65       0.0    Yes
  S030-989             JUNCTION            732.36     15.63       0.0    Yes
  S031-059             JUNCTION            830.12     11.00       0.0    Yes
  S031-063             JUNCTION            841.00     11.00       0.0    Yes
  S031-778             JUNCTION            821.69      9.09       0.0    Yes
  S031-779             JUNCTION            817.00      9.00       0.0    Yes
  S033-064Ta           JUNCTION            746.00      6.00       0.0    Yes
  SFPS_FM              JUNCTION            720.17     30.00       0.0
  S030-475             JUNCTION            893.90     31.00       0.0    Yes
  S030-474             JUNCTION            911.81     22.90       0.0    Yes
  S030-473             JUNCTION            915.46     21.40       0.0    Yes
  S030-337             JUNCTION            918.17     18.30       0.0    Yes
  S030-324             JUNCTION            895.90     29.00       0.0    Yes
  S029-813             OUTFALL             721.00      5.00       0.0    Yes
  S029-CSOII           OUTFALL             734.00      4.62       0.0
  S029-CSOIV           OUTFALL             707.00     21.77       0.0
  S029-071Ta           STORAGE             719.00     32.99       0.0    Yes
  S029-620Ta           STORAGE             709.00     41.17       0.0    Yes
  
  
  ************
  Link Summary
  ************
  Name             From Node        To Node          Type            Length    %Slope Roughness
  ---------------------------------------------------------------------------------------------
  028-001          S028-001         S028-002         CONDUIT          256.0    1.6643    0.0120
  028-002          S028-002         S028-307         CONDUIT          325.0    1.3293    0.0120
  028-307          S028-307         S029-024         CONDUIT           43.8    2.5327    0.0120
  029-005          S029-005         S029-006         CONDUIT          358.5    0.0195    0.0120
  029-006          S029-006         S029-007         CONDUIT          249.9    0.0680    0.0120
  029-007          S029-007         S029-008         CONDUIT          271.8    0.1104    0.0120
  029-008          S029-008         S029-009         CONDUIT          307.1    0.1009    0.0120
  029-009          S029-009         S029-010         CONDUIT          413.0    0.1840    0.0120
  029-010          S029-010         S029-011         CONDUIT           41.2    1.1415    0.0120
  029-011.1        S029-011         S029-068         CONDUIT           47.8   -1.1289    0.0150
  029-011.2        S029-011         S029-073         CONDUIT          433.5    1.4789    0.0120
  029-014          S029-014         S029-071Ta       CONDUIT           64.2    2.0706    0.0120
  029-015          S029-015         S029-014         CONDUIT          676.8    0.2852    0.0120
  029-016          S029-016         S029-015         CONDUIT          381.7    0.0681    0.0130
  029-017          S029-017         S029-016         CONDUIT          305.8    0.0883    0.0130
  029-018          S029-018         S029-017         CONDUIT          267.5    0.5121    0.0130
  029-020          S029-020         S029-018         CONDUIT          212.9   -0.7890    0.0130
  029-021          S029-021         S029-020         CONDUIT           76.8    0.4034    0.0130
  029-024          S029-024         S029-085         CONDUIT          171.0    1.9437    0.0130
  029-025          S029-025         S029-304         CONDUIT          135.2    6.1759    0.0130
  029-026          S029-026         S029-825         CONDUIT          114.7    9.7151    0.0130
  029-027          S029-027         S029-CSOII       CONDUIT          316.2    2.7237    0.0130
  029-058          S029-058         S029-059         CONDUIT           25.0    0.2480    0.0130
  029-059          S029-059         S029-060         CONDUIT          157.8    0.3802    0.0130
  029-060          S029-060         S029-061         CONDUIT          132.6    0.0452    0.0130
  029-061          S029-061         S029-062         CONDUIT          174.2    0.5615    0.0130
  029-062          S029-062         S029-063         CONDUIT          257.7    0.3461    0.0130
  029-063          S029-063         S029-064         CONDUIT          251.3   -0.1631    0.0130
  029-064          S029-064         S029-020         CONDUIT           29.3    5.4989    0.0130
  029-065          S029-065         S029-071Ta       CONDUIT           37.0    1.7570    0.0130
  029-066          S029-066         S029-065         CONDUIT           43.4    0.4611    0.0130
  029-067          S029-067         S029-066         CONDUIT          305.4    0.5534    0.0130
  029-068          S029-068         S029-067         CONDUIT          121.3   -0.5688    0.0130
  029-071          S029-071         S029-071Ta       CONDUIT           38.1    2.9969    0.0130
  029-071Tab       S029-071Ta       S029-620Ta       CONDUIT           49.0    3.0637    0.0130
  029-073          S029-073         S029-065         CONDUIT           78.1    0.3455    0.0120
  029-075          S029-075         S029-025         CONDUIT          184.2    4.1014    0.0120
  029-085          S029-085         S029-075         CONDUIT           95.5    6.5255    0.0130
  029-304          S029-304         S029-827         CONDUIT          116.3   14.2163    0.0130
  029-620          S029-620         S029-CSOIV       CONDUIT          158.3    0.8914    0.0130
  029-825a         S029-825         S029-027         CONDUIT          101.7    6.1970    0.0130
  029-825b         S029-825         S029-058         CONDUIT           39.5   -0.7645    0.0130
  029-827          S029-827         S029-026         CONDUIT          126.4    1.3374    0.0130
  030-025          S030-025         S030-035         CONDUIT          335.2    0.1999    0.0150
  030-032          S030-032         S030-581         CONDUIT          108.8    0.3952    0.0150
  030-035          S030-035         S030-531         CONDUIT           25.5    0.1568    0.0120
  030-039          S030-039         S030-059         CONDUIT          163.0    0.1043    0.0120
  030-041          S030-041         S030-050         CONDUIT          252.7    0.2137    0.0120
  030-050          S030-050         S030-052         CONDUIT          289.5    0.3834    0.0120
  030-052          S030-052         S030-989         CONDUIT          126.2    0.0008    0.0120
  030-053          S030-053         S030-052         CONDUIT           53.8    0.0372    0.0120
  030-054          S030-054         S030-053         CONDUIT           53.8    0.9671    0.0120
  030-057          S030-057         S030-068         CONDUIT          433.2    0.5287    0.0120
  030-059          S030-059         S030-054         CONDUIT          152.4    0.0394    0.0120
  030-065          S030-065         S030-080         CONDUIT          318.3    0.2514    0.0120
  030-066          S030-066         S030-065         CONDUIT           27.1    0.1476    0.0120
  030-068          S030-068         S030-076         CONDUIT          291.4    0.8134    0.0170
  030-074          S030-074         S030-109         CONDUIT          320.0    0.7438    0.0120
  030-076          S030-076         S030-074         CONDUIT           31.1   -0.7388    0.0120
  030-080          S030-080         S030-107         CONDUIT          158.8    0.1953    0.0120
  030-098          S030-098         S030-102         CONDUIT          162.2    0.4933    0.0130
  030-102          S030-102         S030-693         CONDUIT          347.6    0.4804    0.0130
  030-106          S030-106         S030-116         CONDUIT          161.2    0.0868    0.0120
  030-107          S030-107         S030-106         CONDUIT          162.8    0.3072    0.0120
  030-109          S030-109         S030-113         CONDUIT          335.0    0.4478    0.0120
  030-110          S030-110         S030-112         CONDUIT          109.4    1.8834    0.0150
  030-111          S030-111         S030-110         CONDUIT           37.6    1.6726    0.0150
  030-112          S030-112         S030-109         CONDUIT          324.6    0.4375    0.0140
  030-113          S030-113         S030-123         CONDUIT          318.0    0.6131    0.0170
  030-116          S030-116         S030-117         CONDUIT          164.7    0.5647    0.0120
  030-117          S030-117         S030-118         CONDUIT          159.5   -0.0251    0.0120
  030-118          S030-118         S030-119         CONDUIT          159.5    0.2383    0.0120
  030-119          S030-119         S030-120         CONDUIT          143.1    0.4052    0.0120
  030-120          S030-120         S030-700         CONDUIT          143.2    1.0758    0.0120
  030-123          S030-123         S030-704Ta       CONDUIT          471.6    0.4686    0.0120
  030-124          S030-124         S030-125         CONDUIT          293.0    0.0546    0.0130
  030-125          S030-125         S030-126         CONDUIT          301.7    0.1524    0.0130
  030-126          S030-126         S030-127         CONDUIT          350.0    0.3057    0.0130
  030-127          S030-127         S030-128         CONDUIT          499.0    0.5712    0.0130
  030-128          S030-128         S030-129         CONDUIT          528.4    0.1363    0.0120
  030-129          S030-129         S029-071         CONDUIT          356.0    0.3595    0.0130
  030-130          S030-130         S030-129         CONDUIT           76.5    1.9615    0.0120
  030-131          S030-131         S030-705         CONDUIT          319.8    0.3158    0.0120
  030-132          S030-132         S030-131         CONDUIT          340.9    1.4229    0.0120
  030-133          S030-133         S030-704Ta       CONDUIT          287.5    1.4531    0.0160
  030-134          S030-134         S030-133         CONDUIT          170.4    0.5693    0.0160
  030-137          S030-137         S030-134         CONDUIT          207.3    0.7717    0.0160
  030-148          S030-148         S030-718         CONDUIT           65.7    1.5976    0.0140
  030-149          S030-149         S030-148         CONDUIT           48.2    0.5815    0.0140
  030-150          S030-150         S030-149         CONDUIT           75.0    0.3201    0.0140
  030-151          S030-151         S030-150         CONDUIT          102.9    1.2241    0.0140
  030-152          S030-152         S030-717         CONDUIT          128.3    1.8404    0.0160
  030-153          S030-153         S030-715         CONDUIT           69.9   -0.8299    0.0160
  030-166          S030-166         S030-167         CONDUIT           71.0    2.3528    0.0150
  030-167          S030-167         S030-057         CONDUIT          731.7    0.4824    0.0150
  030-273          S030-273         S030-455         CONDUIT          197.3    0.9477    0.0120
  030-281          S030-281         S030-284         CONDUIT          245.3    1.4923    0.0150
  030-284          S030-284         S030-301         CONDUIT          241.7    1.3365    0.0150
  030-301          S030-301         S030-312         CONDUIT          161.2    2.7928    0.0150
  030-308          S030-308         S030-428         CONDUIT          111.0    9.2678    0.0120
  030-309          S030-309         S030-308         CONDUIT           63.3    6.0758    0.0150
  030-310          S030-310         S030-309         CONDUIT           87.2    5.5953    0.0150
  030-312          S030-312         S030-310         CONDUIT          124.5    6.5384    0.0150
  030-323          S030-323         S030-352         CONDUIT          255.9    8.7209    0.0150
  030-342          S030-342         S030-414         CONDUIT          122.2   19.4095    0.0130
  030-351          S030-351         S030-365         CONDUIT          310.1    2.7514    0.0150
  030-352          S030-352         S030-351         CONDUIT          247.6    4.3412    0.0150
  030-365          S030-365         S030-366         CONDUIT          333.8    6.2137    0.0150
  030-366          S030-366         S030-388         CONDUIT          382.5    2.4216    0.0130
  030-375          S030-375         S030-376         CONDUIT          211.0    2.5316    0.0130
  030-376          S030-376         S030-411         CONDUIT          456.0    1.8095    0.0120
  030-378          S030-378         S030-854         CONDUIT          168.1    3.1964    0.0130
  030-380          S030-380         S030-462         CONDUIT          128.7    2.2698    0.0120
  030-381          S030-381         S030-375         CONDUIT          490.3    3.9596    0.0120
  030-382          S030-382         S030-380         CONDUIT           22.5    1.1535    0.0120
  030-388          S030-388         S030-389         CONDUIT           31.0   44.4610    0.0120
  030-389          S030-389         S030-390         CONDUIT          141.0    1.0782    0.0120
  030-390          S030-390         S030-721         CONDUIT          180.4    0.8539    0.0120
  030-397          S030-397         S030-397A        CONDUIT          121.0    8.7523    0.0120
  030-397A         S030-397A        S030-382         CONDUIT          174.0    0.5000    0.0120
  030-400          S030-400         S030-380         CONDUIT          121.8    1.4118    0.0120
  030-408          S030-408         S030-409         CONDUIT          472.5    1.1217    0.0130
  030-409          S030-409         S030-378         CONDUIT          325.5    5.1098    0.0130
  030-411          S030-411         S030-153         CONDUIT           88.4   14.1046    0.0120
  030-412          S030-412         S030-153         CONDUIT           71.8    2.4805    0.0160
  030-413          S030-413         S030-706         CONDUIT           33.7    2.4926    0.0140
  030-414          S030-414         S030-413         CONDUIT          150.7   22.0855    0.0130
  030-419          S030-419         S030-413         CONDUIT          357.9    2.0404    0.0130
  030-420          S030-420         S030-419         CONDUIT           96.9    0.9494    0.0130
  030-423          S030-423         S030-420         CONDUIT          630.2    1.1251    0.0120
  030-424          S030-424         S030-423         CONDUIT          153.0    1.2262    0.0120
  030-425          S030-425         S030-424         CONDUIT           55.7    9.9364    0.0120
  030-426          S030-426         S030-425         CONDUIT          121.0    4.6007    0.0120
  030-427          S030-427         S030-426         CONDUIT          100.1    4.6011    0.0120
  030-428          S030-428         S030-427         CONDUIT           96.1    3.2288    0.0120
  030-432          S030-432         S030-426         CONDUIT          238.1    2.4153    0.0130
  030-433          S030-433         S030-432         CONDUIT          311.5    2.4276    0.0130
  030-455          S030-455         S030-456         CONDUIT          157.1    0.7957    0.0120
  030-456          S030-456         S030-458         CONDUIT          167.1    0.9215    0.0120
  030-457          S030-457         S030-458         CONDUIT           21.4    3.1737    0.0130
  030-458          S030-458         S030-459         CONDUIT          203.2    3.0527    0.0120
  030-459          S030-459         S030-460         CONDUIT           99.4    9.1028    0.0120
  030-460          S030-460         S030-461         CONDUIT          301.5    1.3134    0.0120
  030-461          S030-461         S030-425         CONDUIT          271.9    7.0010    0.0120
  030-462          S030-462         S030-381         CONDUIT          187.8    4.3271    0.0120
  030-529          S030-529         S030-531         CONDUIT          182.5    2.8174    0.0130
  030-531          S030-531         S030-039         CONDUIT          310.9    0.2283    0.0150
  030-538          S030-538         S030-041         CONDUIT          173.5    0.1268    0.0130
  030-539          S030-539         S030-538         CONDUIT          159.8    0.0688    0.0130
  030-542          S030-542         S030-539         CONDUIT           49.5    0.0687    0.0130
  030-544          S030-544         S030-542         CONDUIT          159.0    0.2956    0.0130
  030-545          S030-545         S030-544         CONDUIT          242.6    0.0577    0.0130
  030-555          S030-555         S030-545         CONDUIT          145.5    0.0412    0.0130
  030-559          S030-559         S030-555         CONDUIT          102.7    0.2141    0.0130
  030-564          S030-564         S030-559         CONDUIT          193.7    0.0258    0.0130
  030-566          S030-566         S030-564         CONDUIT          249.9    0.3602    0.0130
  030-569          S030-569         S030-566         CONDUIT          133.0    0.4886    0.0130
  030-581          S030-581         S030-884         CONDUIT          102.5   -0.1366    0.0150
  030-583          S030-583         S030-461         CONDUIT           56.3    0.2663    0.0130
  030-584          S030-584         S030-583         CONDUIT          495.8    0.6152    0.0130
  030-592          S030-592         S030-584         CONDUIT          456.2    0.2849    0.0130
  030-679          S030-679         S030-680         CONDUIT          215.1    0.2919    0.0150
  030-680          S030-680         S030-111         CONDUIT          277.6    0.5087    0.0150
  030-691          S030-691         S030-692         CONDUIT          280.7    0.3206    0.0150
  030-692          S030-692         S030-693         CONDUIT          163.2    0.0368    0.0160
  030-693          S030-693         S030-694         CONDUIT           69.8    0.0573    0.0160
  030-694          S030-694         S030-695         CONDUIT           68.9    0.1524    0.0160
  030-695          S030-695         S030-696         CONDUIT          297.2    0.1329    0.0160
  030-696          S030-696         S030-698         CONDUIT          404.0    0.1733    0.0160
  030-698          S030-698         S030-699         CONDUIT          282.7    0.1768    0.0160
  030-699          S030-699         S030-700         CONDUIT          235.6    0.2547    0.0160
  030-700          S030-700         S030-701         CONDUIT          163.1    0.2453    0.0160
  030-701          S030-701         S030-702         CONDUIT          185.1    0.2701    0.0160
  030-702          S030-702         S030-703         CONDUIT          111.9    0.2681    0.0160
  030-703          S030-703         S030-704Ta       CONDUIT          472.5    0.2258    0.0160
  030-704Ub        S030-704         S030-704Tb       CONDUIT          146.9    0.2723    0.0160
  030-704Ta        S030-704Ta       S030-704Tb       CONDUIT           66.5   -0.2512    0.0160
  030-704Tb        S030-704Tb       S030-129         CONDUIT          270.0    0.5111    0.0130
  030-705          S030-705         S030-130         CONDUIT          224.7    0.5073    0.0120
  030-704          S030-705         S030-704         CONDUIT          327.4   -0.0305    0.0150
  030-706          S030-706         S030-412         CONDUIT           20.1    2.6362    0.0130
  030-715          S030-715         S030-716         CONDUIT           20.8   -1.0738    0.0150
  030-716          S030-716         S030-152         CONDUIT           45.1    0.2730    0.0150
  030-717          S030-717         S030-151         CONDUIT           73.7    3.2458    0.0150
  030-718          S030-718         S030-137         CONDUIT          160.9    1.4238    0.0130
  030-721          S030-721         S029-024         CONDUIT           53.2    0.4320    0.0120
  030-851          S030-851         S030-400         CONDUIT           42.7    0.7065    0.0120
  030-854          S030-854         S030-153         CONDUIT          294.0    1.3811    0.0120
  030-883          S030-883         S030-032         CONDUIT          198.3    0.6204    0.0150
  030-884          S030-884         S030-538         CONDUIT          206.5    0.3197    0.0150
  030-989          S030-989         S030-066         CONDUIT          140.9   -0.3408    0.0120
  031-059          S031-059         S031-778         CONDUIT           67.7   11.7758    0.0130
  031-063          S031-063         S031-059         CONDUIT          140.1    7.7892    0.0130
  031-778          S031-778         S031-779         CONDUIT          109.5    4.2842    0.0130
  031-779          S031-779         S028-001         CONDUIT          220.9    1.5177    0.0130
  033-064Ta        S033-064Ta       S029-064         CONDUIT           90.2    1.9407    0.0130
  029-620Ta        SFPS_FM          S029-813         CONDUIT         2367.1   -0.0773    0.0120
  030-475          S030-475         S030-323         CONDUIT          129.3    0.4409    0.0150
  030-474          S030-474         S030-475         CONDUIT          291.9    4.9596    0.0120
  030-473          S030-473         S030-474         CONDUIT           20.6   16.9452    0.0130
  030-337          S030-337         S030-473         CONDUIT           27.6    9.1157    0.0150
  030-324          S030-324         S030-475         CONDUIT           39.4    4.5723    0.0150
  SF_F1            S029-071Ta       S029-620         TYPE3 PUMP  
  SF_F2            S029-071Ta       S029-620         TYPE3 PUMP  
  SF_F3            S029-071Ta       S029-620         TYPE3 PUMP  
  SantaFe_EC       S029-620Ta       SFPS_FM          TYPE3 PUMP  
  
  
  *********************
  Cross Section Summary
  *********************
                                        Full     Full     Hyd.     Max.   No. of     Full
  Conduit          Shape               Depth     Area     Rad.    Width  Barrels     Flow
  ---------------------------------------------------------------------------------------
  028-001          CIRCULAR             2.00     3.14     0.50     2.00        1    31.62
  028-002          CIRCULAR             2.50     4.91     0.63     2.50        1    51.23
  028-307          CIRCULAR             2.50     4.91     0.63     2.50        1    70.72
  029-005          CIRCULAR             2.00     3.14     0.50     2.00        1     3.42
  029-006          CIRCULAR             2.50     4.91     0.63     2.50        1    11.59
  029-007          CIRCULAR             2.50     4.91     0.63     2.50        1    14.76
  029-008          CIRCULAR             2.50     4.91     0.63     2.50        1    14.12
  029-009          CIRCULAR             3.00     7.07     0.75     3.00        1    31.00
  029-010          CIRCULAR             3.00     7.07     0.75     3.00        1    77.20
  029-011.1        CIRCULAR             3.00     7.07     0.75     3.00        1    61.42
  029-011.2        CIRCULAR             3.00     7.07     0.75     3.00        1    87.87
  029-014          CIRCULAR             3.00     7.07     0.75     3.00        1   103.98
  029-015          CIRCULAR             3.00     7.07     0.75     3.00        1    38.59
  029-016          CIRCULAR             2.50     4.91     0.63     2.50        1    10.71
  029-017          CIRCULAR             2.50     4.91     0.63     2.50        1    12.19
  029-018          CIRCULAR             2.50     4.91     0.63     2.50        1    29.35
  029-020          CIRCULAR             2.50     4.91     0.63     2.50        1    36.43
  029-021          CIRCULAR             2.50     4.91     0.63     2.50        1    26.05
  029-024          CIRCULAR             4.00    12.57     1.00     4.00        1   200.27
  029-025          CIRCULAR             4.00    12.57     1.00     4.00        1   356.97
  029-026          CIRCULAR             3.75    11.04     0.94     3.75        1   376.93
  029-027          CIRCULAR             4.00    12.57     1.00     4.00        1   237.07
  029-058          CIRCULAR             1.25     1.23     0.31     1.25        1     3.22
  029-059          CIRCULAR             1.25     1.23     0.31     1.25        1     3.98
  029-060          CIRCULAR             1.25     1.23     0.31     1.25        1     1.37
  029-061          CIRCULAR             1.25     1.23     0.31     1.25        1     4.84
  029-062          CIRCULAR             1.25     1.23     0.31     1.25        1     3.80
  029-063          CIRCULAR             1.25     1.23     0.31     1.25        1     2.61
  029-064          CIRCULAR             2.00     3.14     0.50     2.00        1    53.05
  029-065          CIRCULAR             4.00    12.57     1.00     4.00        1   190.40
  029-066          CIRCULAR             3.00     7.07     0.75     3.00        1    45.29
  029-067          CIRCULAR             3.00     7.07     0.75     3.00        1    49.62
  029-068          CIRCULAR             3.00     7.07     0.75     3.00        1    50.30
  029-071          RECT_CLOSED         10.00   100.00     2.50    10.00        1  3645.03
  029-071Tab       CIRCULAR             5.00    19.63     1.25     5.00        2   455.87
  029-073          CIRCULAR             3.00     7.07     0.75     3.00        1    42.47
  029-075          CIRCULAR             4.00    12.57     1.00     4.00        1   315.15
  029-085          CIRCULAR             4.00    12.57     1.00     4.00        1   366.94
  029-304          CIRCULAR             4.00    12.57     1.00     4.00        1   541.60
  029-620          CIRCULAR            10.00    78.54     2.50    10.00        1  1561.32
  029-825a         CIRCULAR             3.75    11.04     0.94     3.75        1   301.05
  029-825b         CIRCULAR             1.00     0.79     0.25     1.00        1     3.12
  029-827          CIRCULAR             4.00    12.57     1.00     4.00        1   166.12
  030-025          CIRCULAR             2.00     3.14     0.50     2.00        1     8.77
  030-032          CIRCULAR             2.00     3.14     0.50     2.00        1    12.32
  030-035          CIRCULAR             2.00     3.14     0.50     2.00        1     9.71
  030-039          CIRCULAR             2.50     4.91     0.63     2.50        1    14.35
  030-041          CIRCULAR             4.00    12.57     1.00     4.00        1    71.93
  030-050          CIRCULAR             5.00    19.63     1.25     5.00        1   174.70
  030-052          CIRCULAR             5.00    19.63     1.25     5.00        1     7.94
  030-053          CIRCULAR             2.50     4.91     0.63     2.50        1     8.57
  030-054          CIRCULAR             2.50     4.91     0.63     2.50        1    43.70
  030-057          CIRCULAR             2.00     3.14     0.50     2.00        1    17.82
  030-059          CIRCULAR             2.50     4.91     0.63     2.50        1     8.82
  030-065          CIRCULAR             5.00    19.63     1.25     5.00        1   141.46
  030-066          CIRCULAR             5.00    19.63     1.25     5.00        1   108.38
  030-068          CIRCULAR             4.25    14.19     1.06     4.25        1   116.45
  030-074          CIRCULAR             4.25    14.19     1.06     4.25        1   157.75
  030-076          CIRCULAR             4.25    14.19     1.06     4.25        1   157.23
  030-080          CIRCULAR             5.00    19.63     1.25     5.00        1   124.67
  030-098          CIRCULAR             2.50     4.91     0.63     2.50        1    28.81
  030-102          CIRCULAR             2.50     4.91     0.63     2.50        1    28.43
  030-106          CIRCULAR             5.00    19.63     1.25     5.00        1    83.14
  030-107          CIRCULAR             5.00    19.63     1.25     5.00        1   156.38
  030-109          CIRCULAR             4.25    14.19     1.06     4.25        1   122.40
  030-110          CIRCULAR             4.00    12.57     1.00     4.00        1   170.85
  030-111          CIRCULAR             4.00    12.57     1.00     4.00        1   161.00
  030-112          CIRCULAR             4.00    12.57     1.00     4.00        1    88.23
  030-113          RECT_CLOSED          5.50    24.75     1.24     4.50        1   195.26
  030-116          CIRCULAR             5.00    19.63     1.25     5.00        1   212.01
  030-117          CIRCULAR             5.00    19.63     1.25     5.00        1    44.68
  030-118          CIRCULAR             5.00    19.63     1.25     5.00        1   137.72
  030-119          CIRCULAR             5.00    19.63     1.25     5.00        1   179.60
  030-120          CIRCULAR             5.00    19.63     1.25     5.00        1   292.65
  030-123          RECT_CLOSED          5.50    24.75     1.24     4.50        1   241.83
  030-124          CIRCULAR             2.25     3.98     0.56     2.25        1     7.24
  030-125          CIRCULAR             2.25     3.98     0.56     2.25        1    12.09
  030-126          CIRCULAR             2.50     4.91     0.63     2.50        1    22.68
  030-127          CIRCULAR             2.75     5.94     0.69     2.75        1    39.97
  030-128          CIRCULAR             3.00     7.07     0.75     3.00        1    26.67
  030-129          RECT_CLOSED         10.00   100.00     2.50    10.00        1  1262.50
  030-130          CIRCULAR             2.00     3.14     0.50     2.00        1    34.32
  030-131          CIRCULAR             2.00     3.14     0.50     2.00        1    13.77
  030-132          CIRCULAR             2.00     3.14     0.50     2.00        1    29.23
  030-133          CIRCULAR             4.50    15.90     1.13     4.50        1   192.60
  030-134          CIRCULAR             4.50    15.90     1.13     4.50        1   120.56
  030-137          CIRCULAR             4.50    15.90     1.13     4.50        1   140.36
  030-148          CIRCULAR             4.50    15.90     1.13     4.50        1   230.80
  030-149          CIRCULAR             4.50    15.90     1.13     4.50        1   139.25
  030-150          CIRCULAR             4.50    15.90     1.13     4.50        1   103.31
  030-151          CIRCULAR             4.50    15.90     1.13     4.50        1   202.03
  030-152          CIRCULAR             4.50    15.90     1.13     4.50        1   216.76
  030-153          CIRCULAR             4.50    15.90     1.13     4.50        1   145.56
  030-166          CIRCULAR             2.00     3.14     0.50     2.00        1    30.07
  030-167          CIRCULAR             2.00     3.14     0.50     2.00        1    13.62
  030-273          CIRCULAR             3.00     7.07     0.75     3.00        1    70.34
  030-281          CIRCULAR             2.00     3.14     0.50     2.00        1    23.95
  030-284          CIRCULAR             2.00     3.14     0.50     2.00        1    22.67
  030-301          CIRCULAR             2.00     3.14     0.50     2.00        1    32.77
  030-308          CIRCULAR             2.50     4.91     0.63     2.50        1   135.27
  030-309          CIRCULAR             2.00     3.14     0.50     2.00        1    48.33
  030-310          CIRCULAR             2.00     3.14     0.50     2.00        1    46.38
  030-312          CIRCULAR             2.00     3.14     0.50     2.00        1    50.13
  030-323          CIRCULAR             3.00     7.07     0.75     3.00        1   170.71
  030-342          CIRCULAR             2.00     3.14     0.50     2.00        1    99.67
  030-351          CIRCULAR             3.00     7.07     0.75     3.00        1    95.88
  030-352          CIRCULAR             3.00     7.07     0.75     3.00        1   120.44
  030-365          CIRCULAR             3.00     7.07     0.75     3.00        1   144.09
  030-366          CIRCULAR             3.00     7.07     0.75     3.00        1   103.79
  030-375          CIRCULAR             3.00     7.07     0.75     3.00        1   106.12
  030-376          CIRCULAR             3.00     7.07     0.75     3.00        1    97.20
  030-378          CIRCULAR             1.50     1.77     0.38     1.50        1    18.78
  030-380          CIRCULAR             2.50     4.91     0.63     2.50        1    66.95
  030-381          CIRCULAR             2.67     5.59     0.67     2.67        1   105.06
  030-382          CIRCULAR             2.67     5.59     0.67     2.67        1    56.70
  030-388          CIRCULAR             4.00    12.57     1.00     4.00        1  1037.62
  030-389          CIRCULAR             4.00    12.57     1.00     4.00        1   161.58
  030-390          CIRCULAR             4.00    12.57     1.00     4.00        1   143.79
  030-397          CIRCULAR             2.00     3.14     0.50     2.00        1    72.50
  030-397A         CIRCULAR             2.00     3.14     0.50     2.00        1    17.33
  030-400          CIRCULAR             2.00     3.14     0.50     2.00        1    29.12
  030-408          CIRCULAR             2.00     3.14     0.50     2.00        1    23.96
  030-409          CIRCULAR             1.50     1.77     0.38     1.50        1    23.74
  030-411          CIRCULAR             3.00     7.07     0.75     3.00        1   271.37
  030-412          CIRCULAR             4.00    12.57     1.00     4.00        1   183.81
  030-413          CIRCULAR             4.50    15.90     1.13     4.50        1   288.29
  030-414          CIRCULAR             2.00     3.14     0.50     2.00        1   106.31
  030-419          CIRCULAR             4.00    12.57     1.00     4.00        1   205.18
  030-420          CIRCULAR             4.00    12.57     1.00     4.00        1   139.96
  030-423          CIRCULAR             4.00    12.57     1.00     4.00        1   165.06
  030-424          CIRCULAR             4.00    12.57     1.00     4.00        1   172.32
  030-425          CIRCULAR             4.00    12.57     1.00     4.00        1   490.53
  030-426          CIRCULAR             3.00     7.07     0.75     3.00        1   154.98
  030-427          CIRCULAR             2.50     4.91     0.63     2.50        1    95.31
  030-428          CIRCULAR             2.50     4.91     0.63     2.50        1    79.85
  030-432          CIRCULAR             2.00     3.14     0.50     2.00        1    35.16
  030-433          CIRCULAR             2.00     3.14     0.50     2.00        1    35.25
  030-455          CIRCULAR             3.00     7.07     0.75     3.00        1    64.45
  030-456          CIRCULAR             3.00     7.07     0.75     3.00        1    69.36
  030-457          CIRCULAR             3.00     7.07     0.75     3.00        1   118.82
  030-458          CIRCULAR             3.00     7.07     0.75     3.00        1   126.25
  030-459          CIRCULAR             3.00     7.07     0.75     3.00        1   218.00
  030-460          CIRCULAR             3.00     7.07     0.75     3.00        1    82.81
  030-461          CIRCULAR             4.00    12.57     1.00     4.00        1   411.74
  030-462          CIRCULAR             2.50     4.91     0.63     2.50        1    92.43
  030-529          CIRCULAR             2.00     3.14     0.50     2.00        1    37.97
  030-531          CIRCULAR             2.50     4.91     0.63     2.50        1    16.99
  030-538          CIRCULAR             4.00    12.57     1.00     4.00        1    51.15
  030-539          CIRCULAR             4.00    12.57     1.00     4.00        1    37.69
  030-542          CIRCULAR             4.00    12.57     1.00     4.00        1    37.64
  030-544          CIRCULAR             4.00    12.57     1.00     4.00        1    78.10
  030-545          CIRCULAR             3.50     9.62     0.88     3.50        1    24.17
  030-555          CIRCULAR             3.00     7.07     0.75     3.00        1    13.54
  030-559          CIRCULAR             3.00     7.07     0.75     3.00        1    30.86
  030-564          CIRCULAR             3.00     7.07     0.75     3.00        1    10.72
  030-566          CIRCULAR             2.50     4.91     0.63     2.50        1    24.62
  030-569          CIRCULAR             2.50     4.91     0.63     2.50        1    28.67
  030-581          CIRCULAR             2.00     3.14     0.50     2.00        1     7.25
  030-583          CIRCULAR             2.50     4.91     0.63     2.50        1    21.17
  030-584          CIRCULAR             2.50     4.91     0.63     2.50        1    32.17
  030-592          CIRCULAR             2.50     4.91     0.63     2.50        1    21.89
  030-679          CIRCULAR             4.00    12.57     1.00     4.00        1    67.26
  030-680          CIRCULAR             4.00    12.57     1.00     4.00        1    88.79
  030-691          CIRCULAR             3.00     7.07     0.75     3.00        1    32.73
  030-692          CIRCULAR             3.00     7.07     0.75     3.00        1    10.39
  030-693          CIRCULAR             4.00    12.57     1.00     4.00        1    27.94
  030-694          CIRCULAR             4.00    12.57     1.00     4.00        1    45.56
  030-695          CIRCULAR             4.00    12.57     1.00     4.00        1    42.55
  030-696          CIRCULAR             4.00    12.57     1.00     4.00        1    48.58
  030-698          CIRCULAR             4.00    12.57     1.00     4.00        1    49.08
  030-699          CIRCULAR             4.00    12.57     1.00     4.00        1    58.90
  030-700          CIRCULAR             4.67    17.11     1.17     4.67        1    87.21
  030-701          CIRCULAR             4.67    17.11     1.17     4.67        1    91.52
  030-702          CIRCULAR             6.25    30.68     1.56     6.25        1   198.65
  030-703          CIRCULAR             5.92    27.50     1.48     5.92        1   157.55
  030-704Ub        RECT_CLOSED         10.00   100.00     2.50    10.00        1   892.80
  030-704Ta        CIRCULAR             5.92    27.50     1.48     5.92        1   166.17
  030-704Tb        RECT_CLOSED         10.00   100.00     2.50    10.00        1  1505.30
  030-705          CIRCULAR             2.00     3.14     0.50     2.00        1    17.46
  030-704          RECT_CLOSED         10.00   100.00     2.50    10.00        1   318.93
  030-706          CIRCULAR             4.00    12.57     1.00     4.00        1   233.22
  030-715          CIRCULAR             4.50    15.90     1.13     4.50        1   176.61
  030-716          CIRCULAR             4.50    15.90     1.13     4.50        1    89.05
  030-717          CIRCULAR             4.50    15.90     1.13     4.50        1   307.05
  030-718          CIRCULAR             4.50    15.90     1.13     4.50        1   234.65
  030-721          CIRCULAR             4.00    12.57     1.00     4.00        1   102.28
  030-851          CIRCULAR             2.00     3.14     0.50     2.00        1    20.60
  030-854          CIRCULAR             2.00     3.14     0.50     2.00        1    28.80
  030-883          CIRCULAR             2.00     3.14     0.50     2.00        1    15.44
  030-884          CIRCULAR             2.00     3.14     0.50     2.00        1    11.09
  030-989          CIRCULAR             5.00    19.63     1.25     5.00        1   164.70
  031-059          CIRCULAR             2.00     3.14     0.50     2.00        1    77.63
  031-063          CIRCULAR             2.00     3.14     0.50     2.00        1    63.14
  031-778          CIRCULAR             2.00     3.14     0.50     2.00        1    46.82
  031-779          CIRCULAR             2.00     3.14     0.50     2.00        1    27.87
  033-064Ta        CIRCULAR             2.00     3.14     0.50     2.00        1    31.51
  029-620Ta        CIRCULAR             4.00    12.57     1.00     4.00        1    43.26
  030-475          CIRCULAR             3.00     7.07     0.75     3.00        1    38.38
  030-474          CIRCULAR             2.00     3.14     0.50     2.00        1    54.58
  030-473          CIRCULAR             2.00     3.14     0.50     2.00        1    93.12
  030-337          CIRCULAR             2.00     3.14     0.50     2.00        1    59.20
  030-324          CIRCULAR             3.00     7.07     0.75     3.00        1   123.60
  
  
  
  *********************************************************
  NOTE: The summary statistics displayed in this report are
  based on results found at every computational time step,  
  not just on results from each reporting time step.
  *********************************************************
  
  ****************
  Analysis Options
  ****************
  Flow Units ............... CFS
  Process Models:
    Rainfall/Runoff ........ YES
    RDII ................... NO
    Snowmelt ............... NO
    Groundwater ............ NO
    Flow Routing ........... YES
    Ponding Allowed ........ NO
    Water Quality .......... NO
  Infiltration Method ...... GREEN_AMPT
  Flow Routing Method ...... DYNWAVE
  Surcharge Method ......... EXTRAN
  Starting Date ............ 09/01/2006 00:00:00
  Ending Date .............. 09/03/2006 00:15:00
  Antecedent Dry Days ...... 0.0
  Report Time Step ......... 00:15:00
  Wet Time Step ............ 00:01:00
  Dry Time Step ............ 00:00:00
  Routing Time Step ........ 10.00 sec
  Variable Time Step ....... YES
  Maximum Trials ........... 8
  Number of Threads ........ 1
  Head Tolerance ........... 0.005000 ft
  
  
  **************************        Volume         Depth
  Runoff Quantity Continuity     acre-feet        inches
  **************************     ---------       -------
  Total Precipitation ......         0.000         0.000
  Evaporation Loss .........         0.000         0.000
  Infiltration Loss ........         0.000         0.000
  Surface Runoff ...........         0.000         0.000
  Final Storage ............         0.000         0.000
  Continuity Error (%) .....         0.000
  
  
  **************************        Volume        Volume
  Flow Routing Continuity        acre-feet      10^6 gal
  **************************     ---------     ---------
  Dry Weather Inflow .......         0.000         0.000
  Wet Weather Inflow .......         0.000         0.000
  Groundwater Inflow .......         0.000         0.000
  RDII Inflow ..............         0.000         0.000
  External Inflow ..........         0.000         0.000
  External Outflow .........         0.000         0.000
  Flooding Loss ............         0.000         0.000
  Evaporation Loss .........         0.000         0.000
  Exfiltration Loss ........         0.000         0.000
  Initial Stored Volume ....         0.000         0.000
  Final Stored Volume ......         0.000         0.000
  Continuity Error (%) .....         0.000
  
  
  ***************************
  Time-Step Critical Elements
  ***************************
  None
  
  
  ********************************
  Highest Flow Instability Indexes
  ********************************
  All links are stable.
  
  
  ***************************
  Subcatchment Runoff Summary
  ***************************
  
  ------------------------------------------------------------------------------------------------------------------------------
                            Total      Total      Total      Total     Imperv       Perv      Total       Total     Peak  Runoff
                           Precip      Runon       Evap      Infil     Runoff     Runoff     Runoff      Runoff   Runoff   Coeff
  Subcatchment                 in         in         in         in         in         in         in    10^6 gal      CFS
  ------------------------------------------------------------------------------------------------------------------------------
  S029-005#1                 0.00       0.00       0.00       0.00       0.00       0.00       0.00        0.00     0.00   0.000
  S029-007#1                 0.00       0.00       0.00       0.00       0.00       0.00       0.00        0.00     0.00   0.000
  S029-010#1                 0.00       0.00       0.00       0.00       0.00       0.00       0.00        0.00     0.00   0.000
  S029-016#1                 0.00       0.00       0.00       0.00       0.00       0.00       0.00        0.00     0.00   0.000
  S029-024#1                 0.00       0.00       0.00       0.00       0.00       0.00       0.00        0.00     0.00   0.000
  S029-026#1                 0.00       0.00       0.00       0.00       0.00       0.00       0.00        0.00     0.00   0.000
  S029-071#1                 0.00       0.00       0.00       0.00       0.00       0.00       0.00        0.00     0.00   0.000
  S029-827#1                 0.00       0.00       0.00       0.00       0.00       0.00       0.00        0.00     0.00   0.000
  S030-025#1                 0.00       0.00       0.00       0.00       0.00       0.00       0.00        0.00     0.00   0.000
  S030-039#1                 0.00       0.00       0.00       0.00       0.00       0.00       0.00        0.00     0.00   0.000
  S030-053#1                 0.00       0.00       0.00       0.00       0.00       0.00       0.00        0.00     0.00   0.000
  S030-065#1                 0.00       0.00       0.00       0.00       0.00       0.00       0.00        0.00     0.00   0.000
  S030-074#1                 0.00       0.00       0.00       0.00       0.00       0.00       0.00        0.00     0.00   0.000
  S030-080#1                 0.00       0.00       0.00       0.00       0.00       0.00       0.00        0.00     0.00   0.000
  S030-098#1                 0.00       0.00       0.00       0.00       0.00       0.00       0.00        0.00     0.00   0.000
  S030-106#1                 0.00       0.00       0.00       0.00       0.00       0.00       0.00        0.00     0.00   0.000
  S030-113#1                 0.00       0.00       0.00       0.00       0.00       0.00       0.00        0.00     0.00   0.000
  S030-117#1                 0.00       0.00       0.00       0.00       0.00       0.00       0.00        0.00     0.00   0.000
  S030-124#1                 0.00       0.00       0.00       0.00       0.00       0.00       0.00        0.00     0.00   0.000
  S030-126#1                 0.00       0.00       0.00       0.00       0.00       0.00       0.00        0.00     0.00   0.000
  S030-128#1                 0.00       0.00       0.00       0.00       0.00       0.00       0.00        0.00     0.00   0.000
  S030-132#1                 0.00       0.00       0.00       0.00       0.00       0.00       0.00        0.00     0.00   0.000
  S030-137#1                 0.00       0.00       0.00       0.00       0.00       0.00       0.00        0.00     0.00   0.000
  S030-153#1                 0.00       0.00       0.00       0.00       0.00       0.00       0.00        0.00     0.00   0.000
  S030-166#1                 0.00       0.00       0.00       0.00       0.00       0.00       0.00        0.00     0.00   0.000
  S030-273#1                 0.00       0.00       0.00       0.00       0.00       0.00       0.00        0.00     0.00   0.000
  S030-281#1                 0.00       0.00       0.00       0.00       0.00       0.00       0.00        0.00     0.00   0.000
  S030-301#1                 0.00       0.00       0.00       0.00       0.00       0.00       0.00        0.00     0.00   0.000
  S030-308#1                 0.00       0.00       0.00       0.00       0.00       0.00       0.00        0.00     0.00   0.000
  S030-323#1                 0.00       0.00       0.00       0.00       0.00       0.00       0.00        0.00     0.00   0.000
  S030-342#1                 0.00       0.00       0.00       0.00       0.00       0.00       0.00        0.00     0.00   0.000
  S030-366#1                 0.00       0.00       0.00       0.00       0.00       0.00       0.00        0.00     0.00   0.000
  S030-397#1                 0.00       0.00       0.00       0.00       0.00       0.00       0.00        0.00     0.00   0.000
  S030-408#1                 0.00       0.00       0.00       0.00       0.00       0.00       0.00        0.00     0.00   0.000
  S030-420#1                 0.00       0.00       0.00       0.00       0.00       0.00       0.00        0.00     0.00   0.000
  S030-426#1                 0.00       0.00       0.00       0.00       0.00       0.00       0.00        0.00     0.00   0.000
  S030-433#1                 0.00       0.00       0.00       0.00       0.00       0.00       0.00        0.00     0.00   0.000
  S030-458#1                 0.00       0.00       0.00       0.00       0.00       0.00       0.00        0.00     0.00   0.000
  S030-538#1                 0.00       0.00       0.00       0.00       0.00       0.00       0.00        0.00     0.00   0.000
  S030-559#1                 0.00       0.00       0.00       0.00       0.00       0.00       0.00        0.00     0.00   0.000
  S030-569#1                 0.00       0.00       0.00       0.00       0.00       0.00       0.00        0.00     0.00   0.000
  S030-592#1                 0.00       0.00       0.00       0.00       0.00       0.00       0.00        0.00     0.00   0.000
  S030-679#1                 0.00       0.00       0.00       0.00       0.00       0.00       0.00        0.00     0.00   0.000
  S030-691#1                 0.00       0.00       0.00       0.00       0.00       0.00       0.00        0.00     0.00   0.000
  S030-693#1                 0.00       0.00       0.00       0.00       0.00       0.00       0.00        0.00     0.00   0.000
  S030-698#1                 0.00       0.00       0.00       0.00       0.00       0.00       0.00        0.00     0.00   0.000
  S030-700#1                 0.00       0.00       0.00       0.00       0.00       0.00       0.00        0.00     0.00   0.000
  S030-704Ta#1               0.00       0.00       0.00       0.00       0.00       0.00       0.00        0.00     0.00   0.000
  S030-851#1                 0.00       0.00       0.00       0.00       0.00       0.00       0.00        0.00     0.00   0.000
  S030-883#1                 0.00       0.00       0.00       0.00       0.00       0.00       0.00        0.00     0.00   0.000
  S031-063#1                 0.00       0.00       0.00       0.00       0.00       0.00       0.00        0.00     0.00   0.000
  S033-064Ta#1               0.00       0.00       0.00       0.00       0.00       0.00       0.00        0.00     0.00   0.000
  S030-337#1                 0.00       0.00       0.00       0.00       0.00       0.00       0.00        0.00     0.00   0.000
  
  
  ******************
  Node Depth Summary
  ******************
  
  ---------------------------------------------------------------------------------
                                 Average  Maximum  Maximum  Time of Max    Reported
                                   Depth    Depth      HGL   Occurrence   Max Depth
  Node                 Type         Feet     Feet     Feet  days hr:min        Feet
  ---------------------------------------------------------------------------------
  S028-001             JUNCTION  -nan(ind)     0.00   813.65     0  00:00        0.00
  S028-002             JUNCTION  -nan(ind)     0.00   809.03     0  00:00        0.00
  S028-307             JUNCTION  -nan(ind)     0.00   804.70     0  00:00        0.00
  S029-005             JUNCTION  -nan(ind)     0.00   739.22     0  00:00        0.00
  S029-006             JUNCTION  -nan(ind)     0.00   738.82     0  00:00        0.00
  S029-007             JUNCTION  -nan(ind)     0.00   738.50     0  00:00        0.00
  S029-008             JUNCTION  -nan(ind)     0.00   738.20     0  00:00        0.00
  S029-009             JUNCTION  -nan(ind)     0.00   737.76     0  00:00        0.00
  S029-010             JUNCTION  -nan(ind)     0.00   737.00     0  00:00        0.00
  S029-011             JUNCTION  -nan(ind)     0.00   736.40     0  00:00        0.00
  S029-014             JUNCTION  -nan(ind)     0.00   739.03     0  00:00        0.00
  S029-015             JUNCTION  -nan(ind)     0.00   740.96     0  00:00        0.00
  S029-016             JUNCTION  -nan(ind)     0.00   741.68     0  00:00        0.00
  S029-017             JUNCTION  -nan(ind)     0.00   741.97     0  00:00        0.00
  S029-018             JUNCTION  -nan(ind)     0.00   743.34     0  00:00        0.00
  S029-020             JUNCTION  -nan(ind)     0.00   741.82     0  00:00        0.00
  S029-021             JUNCTION  -nan(ind)     0.00   742.30     0  00:00        0.00
  S029-024             JUNCTION  -nan(ind)     0.00   802.99     0  00:00        0.00
  S029-025             JUNCTION  -nan(ind)     0.00   785.70     0  00:00        0.00
  S029-026             JUNCTION  -nan(ind)     0.00   759.31     0  00:00        0.00
  S029-027             JUNCTION  -nan(ind)     0.00   741.88     0  00:00        0.00
  S029-058             JUNCTION  -nan(ind)     0.00   747.42     0  00:00        0.00
  S029-059             JUNCTION  -nan(ind)     0.00   747.02     0  00:00        0.00
  S029-060             JUNCTION  -nan(ind)     0.00   746.23     0  00:00        0.00
  S029-061             JUNCTION  -nan(ind)     0.00   745.90     0  00:00        0.00
  S029-062             JUNCTION  -nan(ind)     0.00   744.92     0  00:00        0.00
  S029-063             JUNCTION  -nan(ind)     0.00   743.99     0  00:00        0.00
  S029-064             JUNCTION  -nan(ind)     0.00   744.10     0  00:00        0.00
  S029-065             JUNCTION  -nan(ind)     0.00   729.85     0  00:00        0.00
  S029-066             JUNCTION  -nan(ind)     0.00   735.05     0  00:00        0.00
  S029-067             JUNCTION  -nan(ind)     0.00   737.00     0  00:00        0.00
  S029-068             JUNCTION  -nan(ind)     0.00   736.44     0  00:00        0.00
  S029-071             JUNCTION  -nan(ind)     0.00   722.14     0  00:00        0.00
  S029-073             JUNCTION  -nan(ind)     0.00   730.12     0  00:00        0.00
  S029-075             JUNCTION  -nan(ind)     0.00   793.35     0  00:00        0.00
  S029-085             JUNCTION  -nan(ind)     0.00   799.67     0  00:00        0.00
  S029-304             JUNCTION  -nan(ind)     0.00   777.37     0  00:00        0.00
  S029-620             JUNCTION  -nan(ind)     0.00   719.17     0  00:00        0.00
  S029-825             JUNCTION  -nan(ind)     0.00   747.22     0  00:00        0.00
  S029-827             JUNCTION  -nan(ind)     0.00   761.00     0  00:00        0.00
  S030-025             JUNCTION  -nan(ind)     0.00   735.57     0  00:00        0.00
  S030-032             JUNCTION  -nan(ind)     0.00   735.67     0  00:00        0.00
  S030-035             JUNCTION  -nan(ind)     0.00   734.79     0  00:00        0.00
  S030-039             JUNCTION  -nan(ind)     0.00   733.59     0  00:00        0.00
  S030-041             JUNCTION  -nan(ind)     0.00   734.51     0  00:00        0.00
  S030-050             JUNCTION  -nan(ind)     0.00   733.97     0  00:00        0.00
  S030-052             JUNCTION  -nan(ind)     0.00   732.60     0  00:00        0.00
  S030-053             JUNCTION  -nan(ind)     0.00   732.71     0  00:00        0.00
  S030-054             JUNCTION  -nan(ind)     0.00   733.28     0  00:00        0.00
  S030-057             JUNCTION  -nan(ind)     0.00   740.23     0  00:00        0.00
  S030-059             JUNCTION  -nan(ind)     0.00   733.34     0  00:00        0.00
  S030-065             JUNCTION  -nan(ind)     0.00   732.29     0  00:00        0.00
  S030-066             JUNCTION  -nan(ind)     0.00   732.57     0  00:00        0.00
  S030-068             JUNCTION  -nan(ind)     0.00   737.85     0  00:00        0.00
  S030-074             JUNCTION  -nan(ind)     0.00   735.41     0  00:00        0.00
  S030-076             JUNCTION  -nan(ind)     0.00   735.38     0  00:00        0.00
  S030-080             JUNCTION  -nan(ind)     0.00   731.41     0  00:00        0.00
  S030-098             JUNCTION  -nan(ind)     0.00   731.37     0  00:00        0.00
  S030-102             JUNCTION  -nan(ind)     0.00   730.57     0  00:00        0.00
  S030-106             JUNCTION  -nan(ind)     0.00   730.60     0  00:00        0.00
  S030-107             JUNCTION  -nan(ind)     0.00   731.10     0  00:00        0.00
  S030-109             JUNCTION  -nan(ind)     0.00   732.77     0  00:00        0.00
  S030-110             JUNCTION  -nan(ind)     0.00   736.76     0  00:00        0.00
  S030-111             JUNCTION  -nan(ind)     0.00   737.59     0  00:00        0.00
  S030-112             JUNCTION  -nan(ind)     0.00   734.70     0  00:00        0.00
  S030-113             JUNCTION  -nan(ind)     0.00   731.13     0  00:00        0.00
  S030-116             JUNCTION  -nan(ind)     0.00   730.29     0  00:00        0.00
  S030-117             JUNCTION  -nan(ind)     0.00   729.26     0  00:00        0.00
  S030-118             JUNCTION  -nan(ind)     0.00   729.22     0  00:00        0.00
  S030-119             JUNCTION  -nan(ind)     0.00   728.43     0  00:00        0.00
  S030-120             JUNCTION  -nan(ind)     0.00   727.74     0  00:00        0.00
  S030-123             JUNCTION  -nan(ind)     0.00   729.01     0  00:00        0.00
  S030-124             JUNCTION  -nan(ind)     0.00   735.39     0  00:00        0.00
  S030-125             JUNCTION  -nan(ind)     0.00   735.23     0  00:00        0.00
  S030-126             JUNCTION  -nan(ind)     0.00   734.68     0  00:00        0.00
  S030-127             JUNCTION  -nan(ind)     0.00   733.61     0  00:00        0.00
  S030-128             JUNCTION  -nan(ind)     0.00   730.72     0  00:00        0.00
  S030-129             JUNCTION  -nan(ind)     0.00   723.42     0  00:00        0.00
  S030-130             JUNCTION  -nan(ind)     0.00   729.80     0  00:00        0.00
  S030-131             JUNCTION  -nan(ind)     0.00   731.95     0  00:00        0.00
  S030-132             JUNCTION  -nan(ind)     0.00   736.80     0  00:00        0.00
  S030-133             JUNCTION  -nan(ind)     0.00   728.81     0  00:00        0.00
  S030-134             JUNCTION  -nan(ind)     0.00   729.78     0  00:00        0.00
  S030-137             JUNCTION  -nan(ind)     0.00   731.50     0  00:00        0.00
  S030-148             JUNCTION  -nan(ind)     0.00   735.05     0  00:00        0.00
  S030-149             JUNCTION  -nan(ind)     0.00   735.53     0  00:00        0.00
  S030-150             JUNCTION  -nan(ind)     0.00   735.97     0  00:00        0.00
  S030-151             JUNCTION  -nan(ind)     0.00   737.33     0  00:00        0.00
  S030-152             JUNCTION  -nan(ind)     0.00   742.16     0  00:00        0.00
  S030-153             JUNCTION  -nan(ind)     0.00   741.62     0  00:00        0.00
  S030-166             JUNCTION  -nan(ind)     0.00   747.30     0  00:00        0.00
  S030-167             JUNCTION  -nan(ind)     0.00   743.76     0  00:00        0.00
  S030-273             JUNCTION  -nan(ind)     0.00   905.25     0  00:00        0.00
  S030-281             JUNCTION  -nan(ind)     0.00   901.55     0  00:00        0.00
[...]
  030-098                 1.00   -nan(ind)  -nan(ind)  -nan(ind)  -nan(ind)  -nan(ind)  -nan(ind)  -nan(ind)  -nan(ind)  -nan(ind)
  030-102                 1.00   -nan(ind)  -nan(ind)  -nan(ind)  -nan(ind)  -nan(ind)  -nan(ind)  -nan(ind)  -nan(ind)  -nan(ind)
  030-106                 1.05   -nan(ind)  -nan(ind)  -nan(ind)  -nan(ind)  -nan(ind)  -nan(ind)  -nan(ind)  -nan(ind)  -nan(ind)
  030-107                 1.27   -nan(ind)  -nan(ind)  -nan(ind)  -nan(ind)  -nan(ind)  -nan(ind)  -nan(ind)  -nan(ind)  -nan(ind)
  030-109                 1.00   -nan(ind)  -nan(ind)  -nan(ind)  -nan(ind)  -nan(ind)  -nan(ind)  -nan(ind)  -nan(ind)  -nan(ind)
  030-110                 2.28   -nan(ind)  -nan(ind)  -nan(ind)  -nan(ind)  -nan(ind)  -nan(ind)  -nan(ind)  -nan(ind)  -nan(ind)
  030-111                 6.43   -nan(ind)  -nan(ind)  -nan(ind)  -nan(ind)  -nan(ind)  -nan(ind)  -nan(ind)  -nan(ind)  -nan(ind)
  030-112                 1.00   -nan(ind)  -nan(ind)  -nan(ind)  -nan(ind)  -nan(ind)  -nan(ind)  -nan(ind)  -nan(ind)  -nan(ind)
  030-113                 1.00   -nan(ind)  -nan(ind)  -nan(ind)  -nan(ind)  -nan(ind)  -nan(ind)  -nan(ind)  -nan(ind)  -nan(ind)
  030-116                 1.43   -nan(ind)  -nan(ind)  -nan(ind)  -nan(ind)  -nan(ind)  -nan(ind)  -nan(ind)  -nan(ind)  -nan(ind)
  030-117                 1.00   -nan(ind)  -nan(ind)  -nan(ind)  -nan(ind)  -nan(ind)  -nan(ind)  -nan(ind)  -nan(ind)  -nan(ind)
  030-118                 1.24   -nan(ind)  -nan(ind)  -nan(ind)  -nan(ind)  -nan(ind)  -nan(ind)  -nan(ind)  -nan(ind)  -nan(ind)
  030-119                 1.53   -nan(ind)  -nan(ind)  -nan(ind)  -nan(ind)  -nan(ind)  -nan(ind)  -nan(ind)  -nan(ind)  -nan(ind)
  030-120                 1.93   -nan(ind)  -nan(ind)  -nan(ind)  -nan(ind)  -nan(ind)  -nan(ind)  -nan(ind)  -nan(ind)  -nan(ind)
  030-123                 1.00   -nan(ind)  -nan(ind)  -nan(ind)  -nan(ind)  -nan(ind)  -nan(ind)  -nan(ind)  -nan(ind)  -nan(ind)
  030-124                 1.00   -nan(ind)  -nan(ind)  -nan(ind)  -nan(ind)  -nan(ind)  -nan(ind)  -nan(ind)  -nan(ind)  -nan(ind)
  030-125                 1.00   -nan(ind)  -nan(ind)  -nan(ind)  -nan(ind)  -nan(ind)  -nan(ind)  -nan(ind)  -nan(ind)  -nan(ind)
  030-126                 1.00   -nan(ind)  -nan(ind)  -nan(ind)  -nan(ind)  -nan(ind)  -nan(ind)  -nan(ind)  -nan(ind)  -nan(ind)
  030-127                 1.00   -nan(ind)  -nan(ind)  -nan(ind)  -nan(ind)  -nan(ind)  -nan(ind)  -nan(ind)  -nan(ind)  -nan(ind)
  030-128                 1.00   -nan(ind)  -nan(ind)  -nan(ind)  -nan(ind)  -nan(ind)  -nan(ind)  -nan(ind)  -nan(ind)  -nan(ind)
  030-129                 1.00   -nan(ind)  -nan(ind)  -nan(ind)  -nan(ind)  -nan(ind)  -nan(ind)  -nan(ind)  -nan(ind)  -nan(ind)
  030-130                 2.48   -nan(ind)  -nan(ind)  -nan(ind)  -nan(ind)  -nan(ind)  -nan(ind)  -nan(ind)  -nan(ind)  -nan(ind)
  030-131                 1.00   -nan(ind)  -nan(ind)  -nan(ind)  -nan(ind)  -nan(ind)  -nan(ind)  -nan(ind)  -nan(ind)  -nan(ind)
  030-132                 1.00   -nan(ind)  -nan(ind)  -nan(ind)  -nan(ind)  -nan(ind)  -nan(ind)  -nan(ind)  -nan(ind)  -nan(ind)
  030-133                 1.00   -nan(ind)  -nan(ind)  -nan(ind)  -nan(ind)  -nan(ind)  -nan(ind)  -nan(ind)  -nan(ind)  -nan(ind)
  030-134                 1.15   -nan(ind)  -nan(ind)  -nan(ind)  -nan(ind)  -nan(ind)  -nan(ind)  -nan(ind)  -nan(ind)  -nan(ind)
  030-137                 1.01   -nan(ind)  -nan(ind)  -nan(ind)  -nan(ind)  -nan(ind)  -nan(ind)  -nan(ind)  -nan(ind)  -nan(ind)
  030-148                 4.04   -nan(ind)  -nan(ind)  -nan(ind)  -nan(ind)  -nan(ind)  -nan(ind)  -nan(ind)  -nan(ind)  -nan(ind)
  030-149                 4.32   -nan(ind)  -nan(ind)  -nan(ind)  -nan(ind)  -nan(ind)  -nan(ind)  -nan(ind)  -nan(ind)  -nan(ind)
  030-150                 2.47   -nan(ind)  -nan(ind)  -nan(ind)  -nan(ind)  -nan(ind)  -nan(ind)  -nan(ind)  -nan(ind)  -nan(ind)
  030-151                 2.40   -nan(ind)  -nan(ind)  -nan(ind)  -nan(ind)  -nan(ind)  -nan(ind)  -nan(ind)  -nan(ind)  -nan(ind)
  030-152                 2.00   -nan(ind)  -nan(ind)  -nan(ind)  -nan(ind)  -nan(ind)  -nan(ind)  -nan(ind)  -nan(ind)  -nan(ind)
  030-153                 3.03   -nan(ind)  -nan(ind)  -nan(ind)  -nan(ind)  -nan(ind)  -nan(ind)  -nan(ind)  -nan(ind)  -nan(ind)
  030-166                 2.48   -nan(ind)  -nan(ind)  -nan(ind)  -nan(ind)  -nan(ind)  -nan(ind)  -nan(ind)  -nan(ind)  -nan(ind)
  030-167                 1.00   -nan(ind)  -nan(ind)  -nan(ind)  -nan(ind)  -nan(ind)  -nan(ind)  -nan(ind)  -nan(ind)  -nan(ind)
  030-273                 1.00   -nan(ind)  -nan(ind)  -nan(ind)  -nan(ind)  -nan(ind)  -nan(ind)  -nan(ind)  -nan(ind)  -nan(ind)
  030-281                 1.00   -nan(ind)  -nan(ind)  -nan(ind)  -nan(ind)  -nan(ind)  -nan(ind)  -nan(ind)  -nan(ind)  -nan(ind)
  030-284                 1.00   -nan(ind)  -nan(ind)  -nan(ind)  -nan(ind)  -nan(ind)  -nan(ind)  -nan(ind)  -nan(ind)  -nan(ind)
  030-301                 1.14   -nan(ind)  -nan(ind)  -nan(ind)  -nan(ind)  -nan(ind)  -nan(ind)  -nan(ind)  -nan(ind)  -nan(ind)
  030-308                 3.29   -nan(ind)  -nan(ind)  -nan(ind)  -nan(ind)  -nan(ind)  -nan(ind)  -nan(ind)  -nan(ind)  -nan(ind)
  030-309                 3.70   -nan(ind)  -nan(ind)  -nan(ind)  -nan(ind)  -nan(ind)  -nan(ind)  -nan(ind)  -nan(ind)  -nan(ind)
  030-310                 2.61   -nan(ind)  -nan(ind)  -nan(ind)  -nan(ind)  -nan(ind)  -nan(ind)  -nan(ind)  -nan(ind)  -nan(ind)
  030-312                 1.93   -nan(ind)  -nan(ind)  -nan(ind)  -nan(ind)  -nan(ind)  -nan(ind)  -nan(ind)  -nan(ind)  -nan(ind)
  030-323                 1.33   -nan(ind)  -nan(ind)  -nan(ind)  -nan(ind)  -nan(ind)  -nan(ind)  -nan(ind)  -nan(ind)  -nan(ind)
  030-342                 3.25   -nan(ind)  -nan(ind)  -nan(ind)  -nan(ind)  -nan(ind)  -nan(ind)  -nan(ind)  -nan(ind)  -nan(ind)
  030-351                 1.00   -nan(ind)  -nan(ind)  -nan(ind)  -nan(ind)  -nan(ind)  -nan(ind)  -nan(ind)  -nan(ind)  -nan(ind)
  030-352                 1.08   -nan(ind)  -nan(ind)  -nan(ind)  -nan(ind)  -nan(ind)  -nan(ind)  -nan(ind)  -nan(ind)  -nan(ind)
  030-365                 1.00   -nan(ind)  -nan(ind)  -nan(ind)  -nan(ind)  -nan(ind)  -nan(ind)  -nan(ind)  -nan(ind)  -nan(ind)
  030-366                 1.00   -nan(ind)  -nan(ind)  -nan(ind)  -nan(ind)  -nan(ind)  -nan(ind)  -nan(ind)  -nan(ind)  -nan(ind)
  030-375                 1.18   -nan(ind)  -nan(ind)  -nan(ind)  -nan(ind)  -nan(ind)  -nan(ind)  -nan(ind)  -nan(ind)  -nan(ind)
  030-376                 1.00   -nan(ind)  -nan(ind)  -nan(ind)  -nan(ind)  -nan(ind)  -nan(ind)  -nan(ind)  -nan(ind)  -nan(ind)
  030-378                 1.05   -nan(ind)  -nan(ind)  -nan(ind)  -nan(ind)  -nan(ind)  -nan(ind)  -nan(ind)  -nan(ind)  -nan(ind)
  030-380                 1.76   -nan(ind)  -nan(ind)  -nan(ind)  -nan(ind)  -nan(ind)  -nan(ind)  -nan(ind)  -nan(ind)  -nan(ind)
  030-381                 1.00   -nan(ind)  -nan(ind)  -nan(ind)  -nan(ind)  -nan(ind)  -nan(ind)  -nan(ind)  -nan(ind)  -nan(ind)
  030-382                 8.61   -nan(ind)  -nan(ind)  -nan(ind)  -nan(ind)  -nan(ind)  -nan(ind)  -nan(ind)  -nan(ind)  -nan(ind)
  030-388                30.33   -nan(ind)  -nan(ind)  -nan(ind)  -nan(ind)  -nan(ind)  -nan(ind)  -nan(ind)  -nan(ind)  -nan(ind)
  030-389                 1.72   -nan(ind)  -nan(ind)  -nan(ind)  -nan(ind)  -nan(ind)  -nan(ind)  -nan(ind)  -nan(ind)  -nan(ind)
  030-390                 1.26   -nan(ind)  -nan(ind)  -nan(ind)  -nan(ind)  -nan(ind)  -nan(ind)  -nan(ind)  -nan(ind)  -nan(ind)
  030-397                 2.57   -nan(ind)  -nan(ind)  -nan(ind)  -nan(ind)  -nan(ind)  -nan(ind)  -nan(ind)  -nan(ind)  -nan(ind)
  030-397A                1.00   -nan(ind)  -nan(ind)  -nan(ind)  -nan(ind)  -nan(ind)  -nan(ind)  -nan(ind)  -nan(ind)  -nan(ind)
  030-400                 1.42   -nan(ind)  -nan(ind)  -nan(ind)  -nan(ind)  -nan(ind)  -nan(ind)  -nan(ind)  -nan(ind)  -nan(ind)
  030-408                 1.00   -nan(ind)  -nan(ind)  -nan(ind)  -nan(ind)  -nan(ind)  -nan(ind)  -nan(ind)  -nan(ind)  -nan(ind)
  030-409                 1.00   -nan(ind)  -nan(ind)  -nan(ind)  -nan(ind)  -nan(ind)  -nan(ind)  -nan(ind)  -nan(ind)  -nan(ind)
  030-411                 5.45   -nan(ind)  -nan(ind)  -nan(ind)  -nan(ind)  -nan(ind)  -nan(ind)  -nan(ind)  -nan(ind)  -nan(ind)
  030-412                 3.62   -nan(ind)  -nan(ind)  -nan(ind)  -nan(ind)  -nan(ind)  -nan(ind)  -nan(ind)  -nan(ind)  -nan(ind)
  030-413                 8.95   -nan(ind)  -nan(ind)  -nan(ind)  -nan(ind)  -nan(ind)  -nan(ind)  -nan(ind)  -nan(ind)  -nan(ind)
  030-414                 2.78   -nan(ind)  -nan(ind)  -nan(ind)  -nan(ind)  -nan(ind)  -nan(ind)  -nan(ind)  -nan(ind)  -nan(ind)
  030-419                 1.00   -nan(ind)  -nan(ind)  -nan(ind)  -nan(ind)  -nan(ind)  -nan(ind)  -nan(ind)  -nan(ind)  -nan(ind)
  030-420                 2.32   -nan(ind)  -nan(ind)  -nan(ind)  -nan(ind)  -nan(ind)  -nan(ind)  -nan(ind)  -nan(ind)  -nan(ind)
  030-423                 1.00   -nan(ind)  -nan(ind)  -nan(ind)  -nan(ind)  -nan(ind)  -nan(ind)  -nan(ind)  -nan(ind)  -nan(ind)
  030-424                 1.64   -nan(ind)  -nan(ind)  -nan(ind)  -nan(ind)  -nan(ind)  -nan(ind)  -nan(ind)  -nan(ind)  -nan(ind)
  030-425                 9.05   -nan(ind)  -nan(ind)  -nan(ind)  -nan(ind)  -nan(ind)  -nan(ind)  -nan(ind)  -nan(ind)  -nan(ind)
  030-426                 2.62   -nan(ind)  -nan(ind)  -nan(ind)  -nan(ind)  -nan(ind)  -nan(ind)  -nan(ind)  -nan(ind)  -nan(ind)
  030-427                 2.84   -nan(ind)  -nan(ind)  -nan(ind)  -nan(ind)  -nan(ind)  -nan(ind)  -nan(ind)  -nan(ind)  -nan(ind)
  030-428                 2.63   -nan(ind)  -nan(ind)  -nan(ind)  -nan(ind)  -nan(ind)  -nan(ind)  -nan(ind)  -nan(ind)  -nan(ind)
  030-432                 1.00   -nan(ind)  -nan(ind)  -nan(ind)  -nan(ind)  -nan(ind)  -nan(ind)  -nan(ind)  -nan(ind)  -nan(ind)
  030-433                 1.00   -nan(ind)  -nan(ind)  -nan(ind)  -nan(ind)  -nan(ind)  -nan(ind)  -nan(ind)  -nan(ind)  -nan(ind)
  030-455                 1.21   -nan(ind)  -nan(ind)  -nan(ind)  -nan(ind)  -nan(ind)  -nan(ind)  -nan(ind)  -nan(ind)  -nan(ind)
  030-456                 1.18   -nan(ind)  -nan(ind)  -nan(ind)  -nan(ind)  -nan(ind)  -nan(ind)  -nan(ind)  -nan(ind)  -nan(ind)
  030-457                12.43   -nan(ind)  -nan(ind)  -nan(ind)  -nan(ind)  -nan(ind)  -nan(ind)  -nan(ind)  -nan(ind)  -nan(ind)
  030-458                 1.36   -nan(ind)  -nan(ind)  -nan(ind)  -nan(ind)  -nan(ind)  -nan(ind)  -nan(ind)  -nan(ind)  -nan(ind)
  030-459                 4.09   -nan(ind)  -nan(ind)  -nan(ind)  -nan(ind)  -nan(ind)  -nan(ind)  -nan(ind)  -nan(ind)  -nan(ind)
  030-460                 1.00   -nan(ind)  -nan(ind)  -nan(ind)  -nan(ind)  -nan(ind)  -nan(ind)  -nan(ind)  -nan(ind)  -nan(ind)
  030-461                 1.62   -nan(ind)  -nan(ind)  -nan(ind)  -nan(ind)  -nan(ind)  -nan(ind)  -nan(ind)  -nan(ind)  -nan(ind)
  030-462                 1.48   -nan(ind)  -nan(ind)  -nan(ind)  -nan(ind)  -nan(ind)  -nan(ind)  -nan(ind)  -nan(ind)  -nan(ind)
  030-529                 1.10   -nan(ind)  -nan(ind)  -nan(ind)  -nan(ind)  -nan(ind)  -nan(ind)  -nan(ind)  -nan(ind)  -nan(ind)
  030-531                 1.00   -nan(ind)  -nan(ind)  -nan(ind)  -nan(ind)  -nan(ind)  -nan(ind)  -nan(ind)  -nan(ind)  -nan(ind)
  030-538                 1.00   -nan(ind)  -nan(ind)  -nan(ind)  -nan(ind)  -nan(ind)  -nan(ind)  -nan(ind)  -nan(ind)  -nan(ind)
  030-539                 1.00   -nan(ind)  -nan(ind)  -nan(ind)  -nan(ind)  -nan(ind)  -nan(ind)  -nan(ind)  -nan(ind)  -nan(ind)
  030-542                 2.90   -nan(ind)  -nan(ind)  -nan(ind)  -nan(ind)  -nan(ind)  -nan(ind)  -nan(ind)  -nan(ind)  -nan(ind)
  030-544                 1.10   -nan(ind)  -nan(ind)  -nan(ind)  -nan(ind)  -nan(ind)  -nan(ind)  -nan(ind)  -nan(ind)  -nan(ind)
  030-545                 1.00   -nan(ind)  -nan(ind)  -nan(ind)  -nan(ind)  -nan(ind)  -nan(ind)  -nan(ind)  -nan(ind)  -nan(ind)
  030-555                 1.00   -nan(ind)  -nan(ind)  -nan(ind)  -nan(ind)  -nan(ind)  -nan(ind)  -nan(ind)  -nan(ind)  -nan(ind)
  030-559                 1.38   -nan(ind)  -nan(ind)  -nan(ind)  -nan(ind)  -nan(ind)  -nan(ind)  -nan(ind)  -nan(ind)  -nan(ind)
  030-564                 1.00   -nan(ind)  -nan(ind)  -nan(ind)  -nan(ind)  -nan(ind)  -nan(ind)  -nan(ind)  -nan(ind)  -nan(ind)
  030-566                 1.00   -nan(ind)  -nan(ind)  -nan(ind)  -nan(ind)  -nan(ind)  -nan(ind)  -nan(ind)  -nan(ind)  -nan(ind)
  030-569                 1.11   -nan(ind)  -nan(ind)  -nan(ind)  -nan(ind)  -nan(ind)  -nan(ind)  -nan(ind)  -nan(ind)  -nan(ind)
  030-581                 1.01   -nan(ind)  -nan(ind)  -nan(ind)  -nan(ind)  -nan(ind)  -nan(ind)  -nan(ind)  -nan(ind)  -nan(ind)
  030-583                 2.36   -nan(ind)  -nan(ind)  -nan(ind)  -nan(ind)  -nan(ind)  -nan(ind)  -nan(ind)  -nan(ind)  -nan(ind)
  030-584                 1.00   -nan(ind)  -nan(ind)  -nan(ind)  -nan(ind)  -nan(ind)  -nan(ind)  -nan(ind)  -nan(ind)  -nan(ind)
  030-592                 1.00   -nan(ind)  -nan(ind)  -nan(ind)  -nan(ind)  -nan(ind)  -nan(ind)  -nan(ind)  -nan(ind)  -nan(ind)
  030-679                 1.00   -nan(ind)  -nan(ind)  -nan(ind)  -nan(ind)  -nan(ind)  -nan(ind)  -nan(ind)  -nan(ind)  -nan(ind)
  030-680                 1.00   -nan(ind)  -nan(ind)  -nan(ind)  -nan(ind)  -nan(ind)  -nan(ind)  -nan(ind)  -nan(ind)  -nan(ind)
  030-691                 1.00   -nan(ind)  -nan(ind)  -nan(ind)  -nan(ind)  -nan(ind)  -nan(ind)  -nan(ind)  -nan(ind)  -nan(ind)
  030-692                 1.00   -nan(ind)  -nan(ind)  -nan(ind)  -nan(ind)  -nan(ind)  -nan(ind)  -nan(ind)  -nan(ind)  -nan(ind)
  030-693                 1.94   -nan(ind)  -nan(ind)  -nan(ind)  -nan(ind)  -nan(ind)  -nan(ind)  -nan(ind)  -nan(ind)  -nan(ind)
  030-694                 2.17   -nan(ind)  -nan(ind)  -nan(ind)  -nan(ind)  -nan(ind)  -nan(ind)  -nan(ind)  -nan(ind)  -nan(ind)
  030-695                 1.00   -nan(ind)  -nan(ind)  -nan(ind)  -nan(ind)  -nan(ind)  -nan(ind)  -nan(ind)  -nan(ind)  -nan(ind)
  030-696                 1.00   -nan(ind)  -nan(ind)  -nan(ind)  -nan(ind)  -nan(ind)  -nan(ind)  -nan(ind)  -nan(ind)  -nan(ind)
  030-698                 1.00   -nan(ind)  -nan(ind)  -nan(ind)  -nan(ind)  -nan(ind)  -nan(ind)  -nan(ind)  -nan(ind)  -nan(ind)
  030-699                 1.00   -nan(ind)  -nan(ind)  -nan(ind)  -nan(ind)  -nan(ind)  -nan(ind)  -nan(ind)  -nan(ind)  -nan(ind)
  030-700                 1.06   -nan(ind)  -nan(ind)  -nan(ind)  -nan(ind)  -nan(ind)  -nan(ind)  -nan(ind)  -nan(ind)  -nan(ind)
  030-701                 1.00   -nan(ind)  -nan(ind)  -nan(ind)  -nan(ind)  -nan(ind)  -nan(ind)  -nan(ind)  -nan(ind)  -nan(ind)
  030-702                 1.85   -nan(ind)  -nan(ind)  -nan(ind)  -nan(ind)  -nan(ind)  -nan(ind)  -nan(ind)  -nan(ind)  -nan(ind)
  030-703                 1.00   -nan(ind)  -nan(ind)  -nan(ind)  -nan(ind)  -nan(ind)  -nan(ind)  -nan(ind)  -nan(ind)  -nan(ind)
  030-704Ub               1.83   -nan(ind)  -nan(ind)  -nan(ind)  -nan(ind)  -nan(ind)  -nan(ind)  -nan(ind)  -nan(ind)  -nan(ind)
  030-704Ta               2.99   -nan(ind)  -nan(ind)  -nan(ind)  -nan(ind)  -nan(ind)  -nan(ind)  -nan(ind)  -nan(ind)  -nan(ind)
  030-704Tb               1.22   -nan(ind)  -nan(ind)  -nan(ind)  -nan(ind)  -nan(ind)  -nan(ind)  -nan(ind)  -nan(ind)  -nan(ind)
  030-705                 1.00   -nan(ind)  -nan(ind)  -nan(ind)  -nan(ind)  -nan(ind)  -nan(ind)  -nan(ind)  -nan(ind)  -nan(ind)
  030-704                 1.00   -nan(ind)  -nan(ind)  -nan(ind)  -nan(ind)  -nan(ind)  -nan(ind)  -nan(ind)  -nan(ind)  -nan(ind)
  030-706                14.87   -nan(ind)  -nan(ind)  -nan(ind)  -nan(ind)  -nan(ind)  -nan(ind)  -nan(ind)  -nan(ind)  -nan(ind)
  030-715                11.14   -nan(ind)  -nan(ind)  -nan(ind)  -nan(ind)  -nan(ind)  -nan(ind)  -nan(ind)  -nan(ind)  -nan(ind)
  030-716                 3.91   -nan(ind)  -nan(ind)  -nan(ind)  -nan(ind)  -nan(ind)  -nan(ind)  -nan(ind)  -nan(ind)  -nan(ind)
  030-717                 4.25   -nan(ind)  -nan(ind)  -nan(ind)  -nan(ind)  -nan(ind)  -nan(ind)  -nan(ind)  -nan(ind)  -nan(ind)
  030-718                 1.67   -nan(ind)  -nan(ind)  -nan(ind)  -nan(ind)  -nan(ind)  -nan(ind)  -nan(ind)  -nan(ind)  -nan(ind)
  030-721                 3.66   -nan(ind)  -nan(ind)  -nan(ind)  -nan(ind)  -nan(ind)  -nan(ind)  -nan(ind)  -nan(ind)  -nan(ind)
  030-851                 3.41   -nan(ind)  -nan(ind)  -nan(ind)  -nan(ind)  -nan(ind)  -nan(ind)  -nan(ind)  -nan(ind)  -nan(ind)
  030-854                 1.00   -nan(ind)  -nan(ind)  -nan(ind)  -nan(ind)  -nan(ind)  -nan(ind)  -nan(ind)  -nan(ind)  -nan(ind)
  030-883                 1.00   -nan(ind)  -nan(ind)  -nan(ind)  -nan(ind)  -nan(ind)  -nan(ind)  -nan(ind)  -nan(ind)  -nan(ind)
  030-884                 1.00   -nan(ind)  -nan(ind)  -nan(ind)  -nan(ind)  -nan(ind)  -nan(ind)  -nan(ind)  -nan(ind)  -nan(ind)
  030-989                 1.50   -nan(ind)  -nan(ind)  -nan(ind)  -nan(ind)  -nan(ind)  -nan(ind)  -nan(ind)  -nan(ind)  -nan(ind)
  031-059                 4.83   -nan(ind)  -nan(ind)  -nan(ind)  -nan(ind)  -nan(ind)  -nan(ind)  -nan(ind)  -nan(ind)  -nan(ind)
  031-063                 2.01   -nan(ind)  -nan(ind)  -nan(ind)  -nan(ind)  -nan(ind)  -nan(ind)  -nan(ind)  -nan(ind)  -nan(ind)
  031-778                 2.09   -nan(ind)  -nan(ind)  -nan(ind)  -nan(ind)  -nan(ind)  -nan(ind)  -nan(ind)  -nan(ind)  -nan(ind)
  031-779                 1.00   -nan(ind)  -nan(ind)  -nan(ind)  -nan(ind)  -nan(ind)  -nan(ind)  -nan(ind)  -nan(ind)  -nan(ind)
  033-064Ta               2.00   -nan(ind)  -nan(ind)  -nan(ind)  -nan(ind)  -nan(ind)  -nan(ind)  -nan(ind)  -nan(ind)  -nan(ind)
  029-620Ta               1.00   -nan(ind)  -nan(ind)  -nan(ind)  -nan(ind)  -nan(ind)  -nan(ind)  -nan(ind)  -nan(ind)  -nan(ind)
  030-475                 1.18   -nan(ind)  -nan(ind)  -nan(ind)  -nan(ind)  -nan(ind)  -nan(ind)  -nan(ind)  -nan(ind)  -nan(ind)
  030-474                 1.00   -nan(ind)  -nan(ind)  -nan(ind)  -nan(ind)  -nan(ind)  -nan(ind)  -nan(ind)  -nan(ind)  -nan(ind)
  030-473                18.24   -nan(ind)  -nan(ind)  -nan(ind)  -nan(ind)  -nan(ind)  -nan(ind)  -nan(ind)  -nan(ind)  -nan(ind)
  030-337                 9.72   -nan(ind)  -nan(ind)  -nan(ind)  -nan(ind)  -nan(ind)  -nan(ind)  -nan(ind)  -nan(ind)  -nan(ind)
  030-324                 6.93   -nan(ind)  -nan(ind)  -nan(ind)  -nan(ind)  -nan(ind)  -nan(ind)  -nan(ind)  -nan(ind)  -nan(ind)
  
  
  *************************
  Conduit Surcharge Summary
  *************************
  
  No conduits were surcharged.
  
  
  ***************
  Pumping Summary
  ***************
  
  ---------------------------------------------------------------------------------------------------------
                                                  Min       Avg       Max     Total     Power    % Time Off
                        Percent   Number of      Flow      Flow      Flow    Volume     Usage    Pump Curve
  Pump                 Utilized   Start-Ups       CFS       CFS       CFS  10^6 gal     Kw-hr    Low   High
  ---------------------------------------------------------------------------------------------------------
  SF_F1                -nan(ind)           0      0.00      0.00      0.00     0.000      0.00    0.0    0.0
  SF_F2                -nan(ind)           0      0.00      0.00      0.00     0.000      0.00    0.0    0.0
  SF_F3                -nan(ind)           0      0.00      0.00      0.00     0.000      0.00    0.0    0.0
  SantaFe_EC           -nan(ind)           0      0.00      0.00      0.00     0.000      0.00    0.0    0.0
  

  Analysis begun on:  Sat Nov 30 08:11:02 2019
  Analysis ended on:  Sat Nov 30 08:11:02 2019
  Total elapsed time: < 1 sec