
  EPA STORM WATER MANAGEMENT MODEL - VERSION 5.1 (Build 5.1.013)
  --------------------------------------------------------------

  WARNING 03: negative offset ignored for Link C-F107
  WARNING 03: negative offset ignored for Link WWGM0993
  WARNING 03: negative offset ignored for Link WWGM0998
  WARNING 03: negative offset ignored for Link WWGM1183
  WARNING 03: negative offset ignored for Link WWGM1770
  WARNING 03: negative offset ignored for Link WWGM1796
  WARNING 03: negative offset ignored for Link WWGM1798
  WARNING 03: negative offset ignored for Link WWGM2039
  WARNING 02: maximum depth increased for Node J-150_CREEKSD
  
  *********************************************************
  NOTE: The summary statistics displayed in this report are
  based on results found at every computational time step,  
  not just on results from each reporting time step.
  *********************************************************
  
  ****************
  Analysis Options
  ****************
  Flow Units ............... CFS
  Process Models:
    Rainfall/Runoff ........ NO
    RDII ................... YES
    Snowmelt ............... NO
    Groundwater ............ NO
    Flow Routing ........... YES
    Ponding Allowed ........ YES
    Water Quality .......... NO
  Infiltration Method ...... HORTON
  Flow Routing Method ...... DYNWAVE
  Surcharge Method ......... EXTRAN
  Starting Date ............ 02/07/2017 06:00:00
  Ending Date .............. 02/08/2017 06:00:00
  Antecedent Dry Days ...... 5.0
  Report Time Step ......... 00:00:30
  Wet Time Step ............ 00:00:30
  Dry Time Step ............ 01:00:00
  Routing Time Step ........ 5.00 sec
  Variable Time Step ....... YES
  Maximum Trials ........... 8
  Number of Threads ........ 8
  Head Tolerance ........... 0.001000 ft
  
  
  **************************        Volume         Depth
  Runoff Quantity Continuity     acre-feet        inches
  **************************     ---------       -------
  Total Precipitation ......         0.000         0.000
  Evaporation Loss .........         0.000         0.000
  Infiltration Loss ........         0.000         0.000
  Surface Runoff ...........         0.000         0.000
  Final Storage ............         0.000         0.000
  Continuity Error (%) .....         0.000
  
  
  **************************        Volume        Volume
  Flow Routing Continuity        acre-feet      10^6 gal
  **************************     ---------     ---------
  Dry Weather Inflow .......         0.000         0.000
  Wet Weather Inflow .......         0.000         0.000
  Groundwater Inflow .......         0.000         0.000
  RDII Inflow ..............         0.000         0.000
  External Inflow ..........         0.000         0.000
  External Outflow .........         0.000         0.000
  Flooding Loss ............         0.000         0.000
  Evaporation Loss .........         0.000         0.000
  Exfiltration Loss ........         0.000         0.000
  Initial Stored Volume ....         0.000         0.000
  Final Stored Volume ......         0.000         0.000
  Continuity Error (%) .....         0.000
  
  
  ***************************
  Time-Step Critical Elements
  ***************************
  None
  
  
  ********************************
  Highest Flow Instability Indexes
  ********************************
  All links are stable.
  
  
  ******************
  Node Depth Summary
  ******************
  
  ---------------------------------------------------------------------------------
                                 Average  Maximum  Maximum  Time of Max    Reported
                                   Depth    Depth      HGL   Occurrence   Max Depth
  Node                 Type         Feet     Feet     Feet  days hr:min        Feet
  ---------------------------------------------------------------------------------
  J-100                JUNCTION  -nan(ind)     0.00   164.00     0  00:00        0.00
  J-110                JUNCTION  -nan(ind)     0.00   159.72     0  00:00        0.00
  J-140_CHEHAL         JUNCTION  -nan(ind)     0.00   177.10     0  00:00        0.00
  J-150_CREEKSD        JUNCTION  -nan(ind)     0.00   160.60     0  00:00        0.00
  J-160_DAY            JUNCTION  -nan(ind)     0.00   107.00     0  00:00        0.00
  J-170_FERN1          JUNCTION  -nan(ind)     0.00   137.60     0  00:00        0.00
  J-190_HWY240_1       JUNCTION  -nan(ind)     0.00   143.00     0  00:00        0.00
  J-210_SHER1          JUNCTION  -nan(ind)     0.00   132.60     0  00:00        0.00
  J-230_CHEHAL_BASEFLOW JUNCTION  -nan(ind)     0.00   186.09     0  00:00        0.00
  J-240_CREEK_BASEFLOW JUNCTION  -nan(ind)     0.00   165.97     0  00:00        0.00
  J-250_SHER_BASEFLOW  JUNCTION  -nan(ind)     0.00   138.76     0  00:00        0.00
  J-260_CHAR_BASEFLOW  JUNCTION  -nan(ind)     0.00   146.92     0  00:00        0.00
  J-270_ANDR_BASEFLOW  JUNCTION  -nan(ind)     0.00   143.66     0  00:00        0.00
  J-280_HWY240_WEIR    JUNCTION  -nan(ind)     0.00   163.80     0  00:00        0.00
  J-F102               JUNCTION  -nan(ind)     0.00   154.28     0  00:00        0.00
  J-F103               JUNCTION  -nan(ind)     0.00   159.14     0  00:00        0.00
  J-F106_RIVERFRONT    JUNCTION  -nan(ind)     0.00   149.00     0  00:00        0.00
  J-F107_PROVIDENCE    JUNCTION  -nan(ind)     0.00   165.00     0  00:00        0.00
  J-F108_PROV_BASEFLOW JUNCTION  -nan(ind)     0.00   167.08     0  00:00        0.00
  J-F109               JUNCTION  -nan(ind)     0.00   141.61     0  00:00        0.00
  J-F110               JUNCTION  -nan(ind)     0.00   159.00     0  00:00        0.00
  J-F111               JUNCTION  -nan(ind)     0.00   162.00     0  00:00        0.00
  WWMF109000           JUNCTION  -nan(ind)     0.00   167.20     0  00:00        0.00
  WWMF109001           JUNCTION  -nan(ind)     0.00   167.76     0  00:00        0.00
  WWMF109002           JUNCTION  -nan(ind)     0.00   168.39     0  00:00        0.00
  WWMF109003           JUNCTION  -nan(ind)     0.00   169.02     0  00:00        0.00
  WWMF109004           JUNCTION  -nan(ind)     0.00   171.53     0  00:00        0.00
  WWMF109005           JUNCTION  -nan(ind)     0.00   173.61     0  00:00        0.00
  WWMF109006           JUNCTION  -nan(ind)     0.00   175.99     0  00:00        0.00
  WWMF109040           JUNCTION  -nan(ind)     0.00   174.77     0  00:00        0.00
  WWMF109150           JUNCTION  -nan(ind)     0.00   168.17     0  00:00        0.00
  WWMF109153           JUNCTION  -nan(ind)     0.00   166.55     0  00:00        0.00
  WWMF117018           JUNCTION  -nan(ind)     0.00   157.50     0  00:00        0.00
  WWMF117019           JUNCTION  -nan(ind)     0.00   158.59     0  00:00        0.00
  WWMF117020           JUNCTION  -nan(ind)     0.00   159.73     0  00:00        0.00
  WWMF117021           JUNCTION  -nan(ind)     0.00   160.66     0  00:00        0.00
  WWMF117022           JUNCTION  -nan(ind)     0.00   161.98     0  00:00        0.00
  WWMF117023           JUNCTION  -nan(ind)     0.00   163.58     0  00:00        0.00
  WWMF117024           JUNCTION  -nan(ind)     0.00   163.87     0  00:00        0.00
  WWMF117025           JUNCTION  -nan(ind)     0.00   164.41     0  00:00        0.00
  WWMF117026           JUNCTION  -nan(ind)     0.00   164.30     0  00:00        0.00
  WWMF117027           JUNCTION  -nan(ind)     0.00   165.11     0  00:00        0.00
  WWMF117028           JUNCTION  -nan(ind)     0.00   165.19     0  00:00        0.00
  WWMF118001           JUNCTION  -nan(ind)     0.00   165.39     0  00:00        0.00
  WWMF118002           JUNCTION  -nan(ind)     0.00   165.74     0  00:00        0.00
  WWMF118003           JUNCTION  -nan(ind)     0.00   170.44     0  00:00        0.00
  WWMF118023           JUNCTION  -nan(ind)     0.00   169.65     0  00:00        0.00
  WWMF118024           JUNCTION  -nan(ind)     0.00   167.53     0  00:00        0.00
  WWMF118025           JUNCTION  -nan(ind)     0.00   166.25     0  00:00        0.00
  WWMF118026           JUNCTION  -nan(ind)     0.00   165.75     0  00:00        0.00
  WWMF118048           JUNCTION  -nan(ind)     0.00   154.99     0  00:00        0.00
  WWMF118049           JUNCTION  -nan(ind)     0.00   162.17     0  00:00        0.00
  WWMF118050           JUNCTION  -nan(ind)     0.00   162.98     0  00:00        0.00
  WWMF127007           JUNCTION  -nan(ind)     0.00   148.57     0  00:00        0.00
  WWMF127008           JUNCTION  -nan(ind)     0.00   149.01     0  00:00        0.00
  WWMF127009           JUNCTION  -nan(ind)     0.00   149.42     0  00:00        0.00
  WWMF127010           JUNCTION  -nan(ind)     0.00   150.14     0  00:00        0.00
  WWMF127011           JUNCTION  -nan(ind)     0.00   150.90     0  00:00        0.00
  WWMF127012           JUNCTION  -nan(ind)     0.00   151.90     0  00:00        0.00
  WWMF127013           JUNCTION  -nan(ind)     0.00   152.22     0  00:00        0.00
  WWMF127014           JUNCTION  -nan(ind)     0.00   152.96     0  00:00        0.00
  WWMF127015           JUNCTION  -nan(ind)     0.00   153.38     0  00:00        0.00
  WWMF127016           JUNCTION  -nan(ind)     0.00   154.81     0  00:00        0.00
  WWMF127017           JUNCTION  -nan(ind)     0.00   156.17     0  00:00        0.00
  WWMF127044           JUNCTION  -nan(ind)     0.00   157.16     0  00:00        0.00
  WWMF127115           JUNCTION  -nan(ind)     0.00   167.50     0  00:00        0.00
  WWMF127116           JUNCTION  -nan(ind)     0.00   168.23     0  00:00        0.00
  WWMF127117           JUNCTION  -nan(ind)     0.00   168.63     0  00:00        0.00
  WWMF127118           JUNCTION  -nan(ind)     0.00   168.96     0  00:00        0.00
  WWMF127119           JUNCTION  -nan(ind)     0.00   170.40     0  00:00        0.00
  WWMF127203           JUNCTION  -nan(ind)     0.00   169.66     0  00:00        0.00
  WWMF127220           JUNCTION  -nan(ind)     0.00   170.34     0  00:00        0.00
  WWMF137001           JUNCTION  -nan(ind)     0.00   125.96     0  00:00        0.00
  WWMF137002           JUNCTION  -nan(ind)     0.00   132.89     0  00:00        0.00
  WWMF137003           JUNCTION  -nan(ind)     0.00   144.94     0  00:00        0.00
  WWMF137004           JUNCTION  -nan(ind)     0.00   147.00     0  00:00        0.00
  WWMF137005           JUNCTION  -nan(ind)     0.00   147.32     0  00:00        0.00
  WWMF137006           JUNCTION  -nan(ind)     0.00   148.06     0  00:00        0.00
  WWMF137072           JUNCTION  -nan(ind)     0.00   109.76     0  00:00        0.00
  WWMF79028            JUNCTION  -nan(ind)     0.00   216.32     0  00:00        0.00
  WWMF79029            JUNCTION  -nan(ind)     0.00   216.75     0  00:00        0.00
  WWMF79030            JUNCTION  -nan(ind)     0.00   217.37     0  00:00        0.00
  WWMF79031            JUNCTION  -nan(ind)     0.00   218.07     0  00:00        0.00
  WWMF89019            JUNCTION  -nan(ind)     0.00   199.16     0  00:00        0.00
  WWMF89020            JUNCTION  -nan(ind)     0.00   200.18     0  00:00        0.00
  WWMF89021            JUNCTION  -nan(ind)     0.00   201.22     0  00:00        0.00
  WWMF89022            JUNCTION  -nan(ind)     0.00   201.60     0  00:00        0.00
  WWMF89023            JUNCTION  -nan(ind)     0.00   205.30     0  00:00        0.00
  WWMF89024            JUNCTION  -nan(ind)     0.00   208.19     0  00:00        0.00
  WWMF89025            JUNCTION  -nan(ind)     0.00   212.45     0  00:00        0.00
  WWMF89026            JUNCTION  -nan(ind)     0.00   213.74     0  00:00        0.00
  WWMF89027            JUNCTION  -nan(ind)     0.00   215.21     0  00:00        0.00
  WWMF89160            JUNCTION  -nan(ind)     0.00   204.27     0  00:00        0.00
  WWMF99007            JUNCTION  -nan(ind)     0.00   177.87     0  00:00        0.00
  WWMF99008            JUNCTION  -nan(ind)     0.00   178.31     0  00:00        0.00
  WWMF99009            JUNCTION  -nan(ind)     0.00   179.26     0  00:00        0.00
  WWMF99011            JUNCTION  -nan(ind)     0.00   180.34     0  00:00        0.00
  WWMF99012            JUNCTION  -nan(ind)     0.00   180.58     0  00:00        0.00
  WWMF99013            JUNCTION  -nan(ind)     0.00   186.08     0  00:00        0.00
  WWMF99014            JUNCTION  -nan(ind)     0.00   188.32     0  00:00        0.00
  WWMF99015            JUNCTION  -nan(ind)     0.00   189.24     0  00:00        0.00
  WWMF99016            JUNCTION  -nan(ind)     0.00   190.51     0  00:00        0.00
  WWMF99017            JUNCTION  -nan(ind)     0.00   191.25     0  00:00        0.00
  WWMF99018            JUNCTION  -nan(ind)     0.00   192.94     0  00:00        0.00
  WWMF99152            JUNCTION  -nan(ind)     0.00   195.57     0  00:00        0.00
  WWMG108005           JUNCTION  -nan(ind)     0.00   177.08     0  00:00        0.00
  WWMG108006           JUNCTION  -nan(ind)     0.00   178.43     0  00:00        0.00
  WWMG108007           JUNCTION  -nan(ind)     0.00   178.60     0  00:00        0.00
  WWMG108008           JUNCTION  -nan(ind)     0.00   179.75     0  00:00        0.00
  WWMG108009           JUNCTION  -nan(ind)     0.00   180.80     0  00:00        0.00
  WWMG108010           JUNCTION  -nan(ind)     0.00   181.43     0  00:00        0.00
  WWMG108011           JUNCTION  -nan(ind)     0.00   181.53     0  00:00        0.00
  WWMG108080           JUNCTION  -nan(ind)     0.00   178.59     0  00:00        0.00
  WWMG109046           JUNCTION  -nan(ind)     0.00   179.31     0  00:00        0.00
  WWMG109047           JUNCTION  -nan(ind)     0.00   180.34     0  00:00        0.00
  WWMG109048           JUNCTION  -nan(ind)     0.00   181.12     0  00:00        0.00
  WWMG109049           JUNCTION  -nan(ind)     0.00   182.02     0  00:00        0.00
  WWMG109050           JUNCTION  -nan(ind)     0.00   186.00     0  00:00        0.00
  WWMG109051           JUNCTION  -nan(ind)     0.00   188.97     0  00:00        0.00
  WWMG114000           JUNCTION  -nan(ind)     0.00   135.51     0  00:00        0.00
  WWMG114001           JUNCTION  -nan(ind)     0.00   137.22     0  00:00        0.00
  WWMG114002           JUNCTION  -nan(ind)     0.00   138.28     0  00:00        0.00
  WWMG116235           JUNCTION  -nan(ind)     0.00   172.55     0  00:00        0.00
  WWMG116236           JUNCTION  -nan(ind)     0.00   173.27     0  00:00        0.00
  WWMG116237           JUNCTION  -nan(ind)     0.00   173.99     0  00:00        0.00
  WWMG116238           JUNCTION  -nan(ind)     0.00   174.79     0  00:00        0.00
  WWMG116239           JUNCTION  -nan(ind)     0.00   175.11     0  00:00        0.00
  WWMG116240           JUNCTION  -nan(ind)     0.00   176.26     0  00:00        0.00
  WWMG116241           JUNCTION  -nan(ind)     0.00   176.56     0  00:00        0.00
  WWMG117195           JUNCTION  -nan(ind)     0.00   176.86     0  00:00        0.00
  WWMG118004           JUNCTION  -nan(ind)     0.00   174.35     0  00:00        0.00
  WWMG118086           JUNCTION  -nan(ind)     0.00   178.01     0  00:00        0.00
  WWMG118104           JUNCTION  -nan(ind)     0.00   184.64     0  00:00        0.00
  WWMG123072           JUNCTION  -nan(ind)     0.00   121.01     0  00:00        0.00
  WWMG123073           JUNCTION  -nan(ind)     0.00   122.28     0  00:00        0.00
  WWMG123074           JUNCTION  -nan(ind)     0.00   122.74     0  00:00        0.00
  WWMG123075           JUNCTION  -nan(ind)     0.00   125.12     0  00:00        0.00
  WWMG123076           JUNCTION  -nan(ind)     0.00   125.36     0  00:00        0.00
  WWMG123077           JUNCTION  -nan(ind)     0.00   125.89     0  00:00        0.00
  WWMG123078           JUNCTION  -nan(ind)     0.00   132.71     0  00:00        0.00
  WWMG123079           JUNCTION  -nan(ind)     0.00   135.01     0  00:00        0.00
  WWMG126098           JUNCTION  -nan(ind)     0.00   163.54     0  00:00        0.00
  WWMG126102           JUNCTION  -nan(ind)     0.00   164.40     0  00:00        0.00
  WWMG126147           JUNCTION  -nan(ind)     0.00   174.04     0  00:00        0.00
  WWMG126164           JUNCTION  -nan(ind)     0.00   180.00     0  00:00        0.00
  WWMG126200           JUNCTION  -nan(ind)     0.00   164.87     0  00:00        0.00
  WWMG126236           JUNCTION  -nan(ind)     0.00   158.58     0  00:00        0.00
  WWMG126237           JUNCTION  -nan(ind)     0.00   161.43     0  00:00        0.00
  WWMG126238           JUNCTION  -nan(ind)     0.00   162.28     0  00:00        0.00
  WWMG126239           JUNCTION  -nan(ind)     0.00   163.94     0  00:00        0.00
  WWMG126240           JUNCTION  -nan(ind)     0.00   165.66     0  00:00        0.00
  WWMG126241           JUNCTION  -nan(ind)     0.00   168.22     0  00:00        0.00
  WWMG126242           JUNCTION  -nan(ind)     0.00   171.64     0  00:00        0.00
  WWMG126243           JUNCTION  -nan(ind)     0.00   171.83     0  00:00        0.00
  WWMG127109           JUNCTION  -nan(ind)     0.00   163.83     0  00:00        0.00
  WWMG127110           JUNCTION  -nan(ind)     0.00   164.26     0  00:00        0.00
  WWMG127114           JUNCTION  -nan(ind)     0.00   165.69     0  00:00        0.00
  WWMG127133           JUNCTION  -nan(ind)     0.00   168.63     0  00:00        0.00
  WWMG127188           JUNCTION  -nan(ind)     0.00   163.75     0  00:00        0.00
  WWMG127195           JUNCTION  -nan(ind)     0.00   166.36     0  00:00        0.00
  WWMG136015           JUNCTION  -nan(ind)     0.00   153.68     0  00:00        0.00
  WWMG136016           JUNCTION  -nan(ind)     0.00   155.01     0  00:00        0.00
  WWMG136017           JUNCTION  -nan(ind)     0.00   155.82     0  00:00        0.00
  WWMG136018           JUNCTION  -nan(ind)     0.00   156.39     0  00:00        0.00
  WWMG136019           JUNCTION  -nan(ind)     0.00   156.83     0  00:00        0.00
  WWMG136020           JUNCTION  -nan(ind)     0.00   155.24     0  00:00        0.00
  WWMG136021           JUNCTION  -nan(ind)     0.00   158.68     0  00:00        0.00
  WWMG136035           JUNCTION  -nan(ind)     0.00   157.45     0  00:00        0.00
  WWMG136036           JUNCTION  -nan(ind)     0.00   158.46     0  00:00        0.00
  WWMG136037           JUNCTION  -nan(ind)     0.00   159.28     0  00:00        0.00
  WWMG136038           JUNCTION  -nan(ind)     0.00   160.06     0  00:00        0.00
  WWMG136039           JUNCTION  -nan(ind)     0.00   161.22     0  00:00        0.00
  WWMG136050           JUNCTION  -nan(ind)     0.00   155.69     0  00:00        0.00
  WWMG136051           JUNCTION  -nan(ind)     0.00   156.25     0  00:00        0.00
  WWMG136053           JUNCTION  -nan(ind)     0.00   157.74     0  00:00        0.00
  WWMG136054           JUNCTION  -nan(ind)     0.00   158.85     0  00:00        0.00
  WWMG136064           JUNCTION  -nan(ind)     0.00   159.97     0  00:00        0.00
  WWMG136065           JUNCTION  -nan(ind)     0.00   160.39     0  00:00        0.00
  WWMG136066           JUNCTION  -nan(ind)     0.00   160.79     0  00:00        0.00
  WWMG136067           JUNCTION  -nan(ind)     0.00   161.45     0  00:00        0.00
  WWMG136068           JUNCTION  -nan(ind)     0.00   162.01     0  00:00        0.00
  WWMG136069           JUNCTION  -nan(ind)     0.00   162.03     0  00:00        0.00
  WWMG136070           JUNCTION  -nan(ind)     0.00   162.60     0  00:00        0.00
  WWMG136074           JUNCTION  -nan(ind)     0.00   164.31     0  00:00        0.00
  WWMG136095           JUNCTION  -nan(ind)     0.00   162.53     0  00:00        0.00
  WWMG136097           JUNCTION  -nan(ind)     0.00   160.50     0  00:00        0.00
  WWMG136100           JUNCTION  -nan(ind)     0.00   163.12     0  00:00        0.00
  WWMG136254           JUNCTION  -nan(ind)     0.00   159.70     0  00:00        0.00
  WWMG136260           JUNCTION  -nan(ind)     0.00   157.00     0  00:00        0.00
  WWMG137106           JUNCTION  -nan(ind)     0.00   161.89     0  00:00        0.00
  WWMG137107           JUNCTION  -nan(ind)     0.00   162.99     0  00:00        0.00
  WWMG137183           JUNCTION  -nan(ind)     0.00   163.12     0  00:00        0.00
  WWMG137193           JUNCTION  -nan(ind)     0.00   157.07     0  00:00        0.00
  WWMG137194           JUNCTION  -nan(ind)     0.00   158.03     0  00:00        0.00
  WWMG137195           JUNCTION  -nan(ind)     0.00   158.48     0  00:00        0.00
  WWMG146012           JUNCTION  -nan(ind)     0.00   152.08     0  00:00        0.00
  WWMG146013           JUNCTION  -nan(ind)     0.00   152.54     0  00:00        0.00
  WWMG146014           JUNCTION  -nan(ind)     0.00   152.58     0  00:00        0.00
  WWMG146025           JUNCTION  -nan(ind)     0.00   155.04     0  00:00        0.00
  WWMG146030           JUNCTION  -nan(ind)     0.00   157.00     0  00:00        0.00
  WWMG146075           JUNCTION  -nan(ind)     0.00   151.83     0  00:00        0.00
  WWMG146076           JUNCTION  -nan(ind)     0.00   151.13     0  00:00        0.00
  WWMG146077           JUNCTION  -nan(ind)     0.00   150.36     0  00:00        0.00
  WWMG146078           JUNCTION  -nan(ind)     0.00   154.74     0  00:00        0.00
  WWMG146079           JUNCTION  -nan(ind)     0.00   149.70     0  00:00        0.00
  WWMG79032            JUNCTION  -nan(ind)     0.00   218.21     0  00:00        0.00
  WWMG79033            JUNCTION  -nan(ind)     0.00   222.83     0  00:00        0.00
  WWMG79034            JUNCTION  -nan(ind)     0.00   224.69     0  00:00        0.00
  WWMG79195            JUNCTION  -nan(ind)     0.00   240.18     0  00:00        0.00
  WWMG79196            JUNCTION  -nan(ind)     0.00   240.58     0  00:00        0.00
  WWMG79244            JUNCTION  -nan(ind)     0.00   241.37     0  00:00        0.00
  WWMG79245            JUNCTION  -nan(ind)     0.00   242.09     0  00:00        0.00
  WWMG79246            JUNCTION  -nan(ind)     0.00   242.45     0  00:00        0.00
  WWMG89076            JUNCTION  -nan(ind)     0.00   218.83     0  00:00        0.00
  WWMG89185            JUNCTION  -nan(ind)     0.00   220.04     0  00:00        0.00
  WWMG89186            JUNCTION  -nan(ind)     0.00   220.50     0  00:00        0.00
  WWMG89187            JUNCTION  -nan(ind)     0.00   221.07     0  00:00        0.00
  WWMG89189            JUNCTION  -nan(ind)     0.00   222.20     0  00:00        0.00
  WWMG89192            JUNCTION  -nan(ind)     0.00   226.02     0  00:00        0.00
  WWMG89193            JUNCTION  -nan(ind)     0.00   228.02     0  00:00        0.00
  WWMG89194            JUNCTION  -nan(ind)     0.00   234.52     0  00:00        0.00
  WWMG89250            JUNCTION  -nan(ind)     0.00   220.40     0  00:00        0.00
  WWMG89258            JUNCTION  -nan(ind)     0.00   214.58     0  00:00        0.00
  WWMG89259            JUNCTION  -nan(ind)     0.00   216.37     0  00:00        0.00
  WWMG89260            JUNCTION  -nan(ind)     0.00   217.01     0  00:00        0.00
  WWMG89261            JUNCTION  -nan(ind)     0.00   217.97     0  00:00        0.00
  WWMG99099            JUNCTION  -nan(ind)     0.00   191.77     0  00:00        0.00
  WWMG99100            JUNCTION  -nan(ind)     0.00   197.15     0  00:00        0.00
  WWMG99101            JUNCTION  -nan(ind)     0.00   204.69     0  00:00        0.00
  WWMG99102            JUNCTION  -nan(ind)     0.00   208.50     0  00:00        0.00
  WWMG99104            JUNCTION  -nan(ind)     0.00   210.39     0  00:00        0.00
  WWMG99105            JUNCTION  -nan(ind)     0.00   212.56     0  00:00        0.00
  WWMH104008           JUNCTION  -nan(ind)     0.00   146.86     0  00:00        0.00
  WWMH104009           JUNCTION  -nan(ind)     0.00   148.29     0  00:00        0.00
  WWMH104010           JUNCTION  -nan(ind)     0.00   150.28     0  00:00        0.00
  WWMH104011           JUNCTION  -nan(ind)     0.00   150.77     0  00:00        0.00
  WWMH104012           JUNCTION  -nan(ind)     0.00   151.90     0  00:00        0.00
  WWMH104040           JUNCTION  -nan(ind)     0.00   209.84     0  00:00        0.00
  WWMH104041           JUNCTION  -nan(ind)     0.00   210.12     0  00:00        0.00
  WWMH104042           JUNCTION  -nan(ind)     0.00   211.37     0  00:00        0.00
  WWMH104043           JUNCTION  -nan(ind)     0.00   213.21     0  00:00        0.00
  WWMH104044           JUNCTION  -nan(ind)     0.00   214.86     0  00:00        0.00
  WWMH105001           JUNCTION  -nan(ind)     0.00   152.88     0  00:00        0.00
  WWMH105002           JUNCTION  -nan(ind)     0.00   155.42     0  00:00        0.00
  WWMH105003           JUNCTION  -nan(ind)     0.00   157.69     0  00:00        0.00
  WWMH105004           JUNCTION  -nan(ind)     0.00   160.00     0  00:00        0.00
  WWMH105005           JUNCTION  -nan(ind)     0.00   162.03     0  00:00        0.00
  WWMH105017           JUNCTION  -nan(ind)     0.00   163.31     0  00:00        0.00
  WWMH114003           JUNCTION  -nan(ind)     0.00   140.08     0  00:00        0.00
  WWMH114004           JUNCTION  -nan(ind)     0.00   140.80     0  00:00        0.00
  WWMH114005           JUNCTION  -nan(ind)     0.00   141.58     0  00:00        0.00
  WWMH114006           JUNCTION  -nan(ind)     0.00   143.28     0  00:00        0.00
  WWMH114007           JUNCTION  -nan(ind)     0.00   145.32     0  00:00        0.00
  WWMH114026           JUNCTION  -nan(ind)     0.00   145.81     0  00:00        0.00
  WWMH114027           JUNCTION  -nan(ind)     0.00   153.65     0  00:00        0.00
  WWMH114028           JUNCTION  -nan(ind)     0.00   174.85     0  00:00        0.00
  WWMH114029           JUNCTION  -nan(ind)     0.00   176.84     0  00:00        0.00
  WWMH114030           JUNCTION  -nan(ind)     0.00   177.83     0  00:00        0.00
  WWMH114031           JUNCTION  -nan(ind)     0.00   180.15     0  00:00        0.00
  WWMH114033           JUNCTION  -nan(ind)     0.00   190.84     0  00:00        0.00
  WWMH114035           JUNCTION  -nan(ind)     0.00   192.53     0  00:00        0.00
  WWMH114036           JUNCTION  -nan(ind)     0.00   193.10     0  00:00        0.00
  WWMH114037           JUNCTION  -nan(ind)     0.00   194.33     0  00:00        0.00
  WWMH114038           JUNCTION  -nan(ind)     0.00   201.80     0  00:00        0.00
  WWMH114039           JUNCTION  -nan(ind)     0.00   208.10     0  00:00        0.00
  WWMH114127           JUNCTION  -nan(ind)     0.00   142.30     0  00:00        0.00
  WWMH114140           JUNCTION  -nan(ind)     0.00   139.21     0  00:00        0.00
  WWMH123003           JUNCTION  -nan(ind)     0.00   157.32     0  00:00        0.00
  WWMH123004           JUNCTION  -nan(ind)     0.00   160.05     0  00:00        0.00
  WWMH123005           JUNCTION  -nan(ind)     0.00   163.03     0  00:00        0.00
  WWMH123006           JUNCTION  -nan(ind)     0.00   164.58     0  00:00        0.00
  WWMH123007           JUNCTION  -nan(ind)     0.00   167.07     0  00:00        0.00
  WWMH123068           JUNCTION  -nan(ind)     0.00   118.12     0  00:00        0.00
  WWMH123069           JUNCTION  -nan(ind)     0.00   118.70     0  00:00        0.00
  WWMH123070           JUNCTION  -nan(ind)     0.00   119.14     0  00:00        0.00
  WWMH123071           JUNCTION  -nan(ind)     0.00   119.89     0  00:00        0.00
  WWMH126133           JUNCTION  -nan(ind)     0.00   161.52     0  00:00        0.00
  WWMH131073           JUNCTION  -nan(ind)     0.00   102.95     0  00:00        0.00
  WWMH131074           JUNCTION  -nan(ind)     0.00   103.87     0  00:00        0.00
  WWMH131075           JUNCTION  -nan(ind)     0.00   106.08     0  00:00        0.00
  WWMH131080           JUNCTION  -nan(ind)     0.00   107.40     0  00:00        0.00
  WWMH131081           JUNCTION  -nan(ind)     0.00   108.26     0  00:00        0.00
  WWMH131082           JUNCTION  -nan(ind)     0.00   110.06     0  00:00        0.00
  WWMH131083           JUNCTION  -nan(ind)     0.00   111.72     0  00:00        0.00
  WWMH133000           JUNCTION  -nan(ind)     0.00   115.16     0  00:00        0.00
  WWMH133001           JUNCTION  -nan(ind)     0.00   116.99     0  00:00        0.00
  WWMH133002           JUNCTION  -nan(ind)     0.00   117.76     0  00:00        0.00
  WWMH133066           JUNCTION  -nan(ind)     0.00   116.27     0  00:00        0.00
  WWMH133067           JUNCTION  -nan(ind)     0.00   117.04     0  00:00        0.00
  WWMH133096           JUNCTION  -nan(ind)     0.00   114.54     0  00:00        0.00
  WWMH136135           JUNCTION  -nan(ind)     0.00   158.83     0  00:00        0.00
  WWMH136204           JUNCTION  -nan(ind)     0.00   159.79     0  00:00        0.00
  WWMH136247           JUNCTION  -nan(ind)     0.00   155.57     0  00:00        0.00
  WWMH136248           JUNCTION  -nan(ind)     0.00   156.42     0  00:00        0.00
  WWMH136249           JUNCTION  -nan(ind)     0.00   157.01     0  00:00        0.00
  WWMH136250           JUNCTION  -nan(ind)     0.00   157.81     0  00:00        0.00
  WWMH136253           JUNCTION  -nan(ind)     0.00   159.45     0  00:00        0.00
  WWMH136262           JUNCTION  -nan(ind)     0.00   161.48     0  00:00        0.00
  WWMH141000           JUNCTION  -nan(ind)     0.00    91.24     0  00:00        0.00
  WWMH141001           JUNCTION  -nan(ind)     0.00    95.40     0  00:00        0.00
  WWMH141002           JUNCTION  -nan(ind)     0.00    96.14     0  00:00        0.00
  WWMH141003           JUNCTION  -nan(ind)     0.00    96.53     0  00:00        0.00
  WWMH141004           JUNCTION  -nan(ind)     0.00    97.06     0  00:00        0.00
  WWMH141005           JUNCTION  -nan(ind)     0.00    97.72     0  00:00        0.00
  WWMH141006           JUNCTION  -nan(ind)     0.00   119.82     0  00:00        0.00
  WWMH141007           JUNCTION  -nan(ind)     0.00   149.19     0  00:00        0.00
  WWMH141071           JUNCTION  -nan(ind)     0.00   101.64     0  00:00        0.00
  WWMH141072           JUNCTION  -nan(ind)     0.00   102.73     0  00:00        0.00
  WWMH146000           JUNCTION  -nan(ind)     0.00    92.54     0  00:00        0.00
  WWMH146001           JUNCTION  -nan(ind)     0.00   142.01     0  00:00        0.00
  WWMH146002           JUNCTION  -nan(ind)     0.00   143.45     0  00:00        0.00
  WWMH146003           JUNCTION  -nan(ind)     0.00   144.27     0  00:00        0.00
  WWMH146004           JUNCTION  -nan(ind)     0.00   145.38     0  00:00        0.00
  WWMH146005           JUNCTION  -nan(ind)     0.00   145.89     0  00:00        0.00
  WWMH146006           JUNCTION  -nan(ind)     0.00   146.57     0  00:00        0.00
  WWMH146007           JUNCTION  -nan(ind)     0.00   147.71     0  00:00        0.00
  WWMH146008           JUNCTION  -nan(ind)     0.00   148.65     0  00:00        0.00
  WWMH146246           JUNCTION  -nan(ind)     0.00   153.93     0  00:00        0.00
  WWMH146247           JUNCTION  -nan(ind)     0.00   148.89     0  00:00        0.00
  WWMH95018            JUNCTION  -nan(ind)     0.00   165.10     0  00:00        0.00
  WWMH95019            JUNCTION  -nan(ind)     0.00   166.45     0  00:00        0.00
  WWMH95020            JUNCTION  -nan(ind)     0.00   169.94     0  00:00        0.00
  WWMH95021            JUNCTION  -nan(ind)     0.00   187.21     0  00:00        0.00
  WWMH95022            JUNCTION  -nan(ind)     0.00   190.07     0  00:00        0.00
  WWMH95023            JUNCTION  -nan(ind)     0.00   191.85     0  00:00        0.00
  WWMH95024            JUNCTION  -nan(ind)     0.00   192.85     0  00:00        0.00
  WWMI102001           JUNCTION  -nan(ind)     0.00   197.52     0  00:00        0.00
  WWMI102002           JUNCTION  -nan(ind)     0.00   198.62     0  00:00        0.00
  WWMI102003           JUNCTION  -nan(ind)     0.00   199.90     0  00:00        0.00
  WWMI102066           JUNCTION  -nan(ind)     0.00   203.23     0  00:00        0.00
  WWMI102067           JUNCTION  -nan(ind)     0.00   208.13     0  00:00        0.00
  WWMI102068           JUNCTION  -nan(ind)     0.00   212.88     0  00:00        0.00
  WWMI102069           JUNCTION  -nan(ind)     0.00   213.72     0  00:00        0.00
  WWMI102070           JUNCTION  -nan(ind)     0.00   214.21     0  00:00        0.00
  WWMI102071           JUNCTION  -nan(ind)     0.00   214.40     0  00:00        0.00
  WWMI102072           JUNCTION  -nan(ind)     0.00   216.64     0  00:00        0.00
  WWMI102073           JUNCTION  -nan(ind)     0.00   218.21     0  00:00        0.00
  WWMI102131           JUNCTION  -nan(ind)     0.00   219.28     0  00:00        0.00
  WWMI102132           JUNCTION  -nan(ind)     0.00   220.88     0  00:00        0.00
  WWMI104050           JUNCTION  -nan(ind)     0.00   222.32     0  00:00        0.00
  WWMI104051           JUNCTION  -nan(ind)     0.00   222.06     0  00:00        0.00
  WWMI111032           JUNCTION  -nan(ind)     0.00   179.27     0  00:00        0.00
  WWMI111035           JUNCTION  -nan(ind)     0.00   181.39     0  00:00        0.00
  WWMI111036           JUNCTION  -nan(ind)     0.00   182.78     0  00:00        0.00
  WWMI111037           JUNCTION  -nan(ind)     0.00   189.43     0  00:00        0.00
  WWMI111040           JUNCTION  -nan(ind)     0.00   180.54     0  00:00        0.00
  WWMI111053           JUNCTION  -nan(ind)     0.00   193.35     0  00:00        0.00
  WWMI111099           JUNCTION  -nan(ind)     0.00   195.95     0  00:00        0.00
  WWMI112000           JUNCTION  -nan(ind)     0.00   196.52     0  00:00        0.00
  WWMI121026           JUNCTION  -nan(ind)     0.00   171.05     0  00:00        0.00
  WWMI121027           JUNCTION  -nan(ind)     0.00   172.17     0  00:00        0.00
  WWMI121028           JUNCTION  -nan(ind)     0.00   172.66     0  00:00        0.00
  WWMI121029           JUNCTION  -nan(ind)     0.00   174.79     0  00:00        0.00
  WWMI121030           JUNCTION  -nan(ind)     0.00   176.89     0  00:00        0.00
  WWMI121031           JUNCTION  -nan(ind)     0.00   178.01     0  00:00        0.00
  WWMI121100           JUNCTION  -nan(ind)     0.00   177.06     0  00:00        0.00
  WWMI121103           JUNCTION  -nan(ind)     0.00   172.35     0  00:00        0.00
  WWMI131009           JUNCTION  -nan(ind)     0.00   152.25     0  00:00        0.00
  WWMI131010           JUNCTION  -nan(ind)     0.00   153.52     0  00:00        0.00
  WWMI131011           JUNCTION  -nan(ind)     0.00   154.68     0  00:00        0.00
  WWMI131012           JUNCTION  -nan(ind)     0.00   154.97     0  00:00        0.00
  WWMI131013           JUNCTION  -nan(ind)     0.00   156.32     0  00:00        0.00
  WWMI131014           JUNCTION  -nan(ind)     0.00   156.45     0  00:00        0.00
  WWMI131017           JUNCTION  -nan(ind)     0.00   157.55     0  00:00        0.00
  WWMI131018           JUNCTION  -nan(ind)     0.00   158.73     0  00:00        0.00
  WWMI131019           JUNCTION  -nan(ind)     0.00   160.63     0  00:00        0.00
  WWMI131020           JUNCTION  -nan(ind)     0.00   161.93     0  00:00        0.00
  WWMI131021           JUNCTION  -nan(ind)     0.00   163.74     0  00:00        0.00
  WWMI131022           JUNCTION  -nan(ind)     0.00   165.43     0  00:00        0.00
  WWMI131023           JUNCTION  -nan(ind)     0.00   166.71     0  00:00        0.00
  WWMI131024           JUNCTION  -nan(ind)     0.00   168.13     0  00:00        0.00
  WWMI131025           JUNCTION  -nan(ind)     0.00   169.55     0  00:00        0.00
  WWMI131111           JUNCTION  -nan(ind)     0.00   160.90     0  00:00        0.00
  WWMI141008           JUNCTION  -nan(ind)     0.00   150.54     0  00:00        0.00
  WWMI81               JUNCTION  -nan(ind)     0.00   268.14     0  00:00        0.00
  WWMI92143            JUNCTION  -nan(ind)     0.00   257.49     0  00:00        0.00
  WWMI92144            JUNCTION  -nan(ind)     0.00   256.47     0  00:00        0.00
  WWMI92146            JUNCTION  -nan(ind)     0.00   254.54     0  00:00        0.00
  WWMI92147            JUNCTION  -nan(ind)     0.00   243.47     0  00:00        0.00
  WWMI92148            JUNCTION  -nan(ind)     0.00   241.52     0  00:00        0.00
  WWMI92149            JUNCTION  -nan(ind)     0.00   236.97     0  00:00        0.00
  WWMI92150            JUNCTION  -nan(ind)     0.00   229.75     0  00:00        0.00
  WWMI92151            JUNCTION  -nan(ind)     0.00   225.75     0  00:00        0.00
  WWMI92152            JUNCTION  -nan(ind)     0.00   223.96     0  00:00        0.00
  WWMI92156            JUNCTION  -nan(ind)     0.00   244.65     0  00:00        0.00
  WWMI92157            JUNCTION  -nan(ind)     0.00   245.57     0  00:00        0.00
  WWMI92158            JUNCTION  -nan(ind)     0.00   247.11     0  00:00        0.00
  WWMI92159            JUNCTION  -nan(ind)     0.00   248.10     0  00:00        0.00
  WWMI92161            JUNCTION  -nan(ind)     0.00   249.58     0  00:00        0.00
  WWMJ102130           JUNCTION  -nan(ind)     0.00   171.61     0  00:00        0.00
  WWMJ102131           JUNCTION  -nan(ind)     0.00   170.08     0  00:00        0.00
  WWMJ111043           JUNCTION  -nan(ind)     0.00   184.33     0  00:00        0.00
  WWMJ111047           JUNCTION  -nan(ind)     0.00   176.73     0  00:00        0.00
  WWMJ111056           JUNCTION  -nan(ind)     0.00   191.76     0  00:00        0.00
  WWMJ111061           JUNCTION  -nan(ind)     0.00   168.54     0  00:00        0.00
  WWMJ111062           JUNCTION  -nan(ind)     0.00   167.35     0  00:00        0.00
  WWMJ111063           JUNCTION  -nan(ind)     0.00   165.36     0  00:00        0.00
  WWMJ111064           JUNCTION  -nan(ind)     0.00   162.76     0  00:00        0.00
  WWMJ111094           JUNCTION  -nan(ind)     0.00   177.95     0  00:00        0.00
  WWMJ111103           JUNCTION  -nan(ind)     0.00   176.58     0  00:00        0.00
  WWMJ120001           JUNCTION  -nan(ind)     0.00   163.63     0  00:00        0.00
  WWMJ120009           JUNCTION  -nan(ind)     0.00   163.22     0  00:00        0.00
  WWMJ120010           JUNCTION  -nan(ind)     0.00   153.07     0  00:00        0.00
  WWMJ120012           JUNCTION  -nan(ind)     0.00   160.24     0  00:00        0.00
  WWMJ120013           JUNCTION  -nan(ind)     0.00   161.35     0  00:00        0.00
  WWMJ120014           JUNCTION  -nan(ind)     0.00   162.10     0  00:00        0.00
  WWMJ120015           JUNCTION  -nan(ind)     0.00   164.04     0  00:00        0.00
  WWMJ120016           JUNCTION  -nan(ind)     0.00   124.42     0  00:00        0.00
  WWMJ120017           JUNCTION  -nan(ind)     0.00   122.37     0  00:00        0.00
  WWMJ120018           JUNCTION  -nan(ind)     0.00   135.90     0  00:00        0.00
  WWMJ120021           JUNCTION  -nan(ind)     0.00   166.16     0  00:00        0.00
  WWMJ120022           JUNCTION  -nan(ind)     0.00   168.60     0  00:00        0.00
  WWMJ120023           JUNCTION  -nan(ind)     0.00   172.55     0  00:00        0.00
  WWMJ120024           JUNCTION  -nan(ind)     0.00   177.01     0  00:00        0.00
  WWMJ120025           JUNCTION  -nan(ind)     0.00   174.85     0  00:00        0.00
  WWMJ120026           JUNCTION  -nan(ind)     0.00   174.41     0  00:00        0.00
  WWMJ120027           JUNCTION  -nan(ind)     0.00   176.14     0  00:00        0.00
  WWMJ120032           JUNCTION  -nan(ind)     0.00   172.89     0  00:00        0.00
  WWMJ120033           JUNCTION  -nan(ind)     0.00   171.58     0  00:00        0.00
  WWMJ120034           JUNCTION  -nan(ind)     0.00   124.85     0  00:00        0.00
  WWMJ120035           JUNCTION  -nan(ind)     0.00   126.31     0  00:00        0.00
  WWMJ120036           JUNCTION  -nan(ind)     0.00   127.46     0  00:00        0.00
  WWMJ120037           JUNCTION  -nan(ind)     0.00   132.41     0  00:00        0.00
  WWMJ120038           JUNCTION  -nan(ind)     0.00   139.45     0  00:00        0.00
  WWMJ120039           JUNCTION  -nan(ind)     0.00   141.24     0  00:00        0.00
  WWMJ120040           JUNCTION  -nan(ind)     0.00   143.48     0  00:00        0.00
  WWMJ120041           JUNCTION  -nan(ind)     0.00   146.02     0  00:00        0.00
  WWMJ120042           JUNCTION  -nan(ind)     0.00   153.34     0  00:00        0.00
  WWMJ120043           JUNCTION  -nan(ind)     0.00   167.14     0  00:00        0.00
  WWMJ120044           JUNCTION  -nan(ind)     0.00   160.50     0  00:00        0.00
  WWMJ120045           JUNCTION  -nan(ind)     0.00   157.75     0  00:00        0.00
  WWMJ120046           JUNCTION  -nan(ind)     0.00   120.13     0  00:00        0.00
  WWMJ120047           JUNCTION  -nan(ind)     0.00   119.80     0  00:00        0.00
  WWMJ120048           JUNCTION  -nan(ind)     0.00   159.33     0  00:00        0.00
  WWMJ120060           JUNCTION  -nan(ind)     0.00   136.72     0  00:00        0.00
  WWMK120007           JUNCTION  -nan(ind)     0.00   154.55     0  00:00        0.00
  WWMK120008           JUNCTION  -nan(ind)     0.00   154.54     0  00:00        0.00
  WWMK120009           JUNCTION  -nan(ind)     0.00   156.94     0  00:00        0.00
  OF-3                 OUTFALL   -nan(ind)     0.00    90.60     0  00:00        0.00
  F109157              STORAGE   -nan(ind)     0.00   160.60     0  00:00        0.00
  F118029              STORAGE   -nan(ind)     0.00   132.60     0  00:00        0.00
  F137204              STORAGE   -nan(ind)     0.00   101.90     0  00:00        0.00
  F89189               STORAGE   -nan(ind)     0.00   177.10     0  00:00        0.00
  HWY240LS             STORAGE   -nan(ind)     0.00   143.00     0  00:00        0.00
  J120019              STORAGE   -nan(ind)     0.00   113.60     0  00:00        0.00
  PROVIDENCEWW_F1      STORAGE   -nan(ind)     0.00   160.00     0  00:00        0.00
  RIVERFRONTWW_F2      STORAGE   -nan(ind)     0.00   130.85     0  00:00        0.00
  
  
  *******************
  Node Inflow Summary
  *******************
  
  -------------------------------------------------------------------------------------------------
                                  Maximum  Maximum                  Lateral       Total        Flow
                                  Lateral    Total  Time of Max      Inflow      Inflow     Balance
                                   Inflow   Inflow   Occurrence      Volume      Volume       Error
  Node                 Type           CFS      CFS  days hr:min    10^6 gal    10^6 gal     Percent
  -------------------------------------------------------------------------------------------------
  J-100                JUNCTION      0.00     0.00     0  00:00           0           0       0.000 gal
  J-110                JUNCTION      0.00     0.00     0  00:00           0           0       0.000 gal
  J-140_CHEHAL         JUNCTION      0.00     0.00     0  00:00           0           0       0.000 gal
  J-150_CREEKSD        JUNCTION      0.00     0.00     0  00:00           0           0       0.000 gal
  J-160_DAY            JUNCTION      0.00     0.00     0  00:00           0           0       0.000 gal
  J-170_FERN1          JUNCTION      0.00     0.00     0  00:00           0           0       0.000 gal
  J-190_HWY240_1       JUNCTION      0.00     0.00     0  00:00           0           0       0.000 gal
  J-210_SHER1          JUNCTION      0.00     0.00     0  00:00           0           0       0.000 gal
  J-230_CHEHAL_BASEFLOW JUNCTION      0.00     0.00     0  00:00           0           0       0.000 gal
  J-240_CREEK_BASEFLOW JUNCTION      0.00     0.00     0  00:00           0           0       0.000 gal
  J-250_SHER_BASEFLOW  JUNCTION      0.00     0.00     0  00:00           0           0       0.000 gal
  J-260_CHAR_BASEFLOW  JUNCTION      0.00     0.00     0  00:00           0           0       0.000 gal
  J-270_ANDR_BASEFLOW  JUNCTION      0.00     0.00     0  00:00           0           0       0.000 gal
  J-280_HWY240_WEIR    JUNCTION      0.00     0.00     0  00:00           0           0       0.000 gal
  J-F102               JUNCTION      0.00     0.00     0  00:00           0           0       0.000 gal
  J-F103               JUNCTION      0.00     0.00     0  00:00           0           0       0.000 gal
  J-F106_RIVERFRONT    JUNCTION      0.00     0.00     0  00:00           0           0       0.000 gal
  J-F107_PROVIDENCE    JUNCTION      0.00     0.00     0  00:00           0           0       0.000 gal
  J-F108_PROV_BASEFLOW JUNCTION      0.00     0.00     0  00:00           0           0       0.000 gal
  J-F109               JUNCTION      0.00     0.00     0  00:00           0           0       0.000 gal
  J-F110               JUNCTION      0.00     0.00     0  00:00           0           0       0.000 gal
  J-F111               JUNCTION      0.00     0.00     0  00:00           0           0       0.000 gal
  WWMF109000           JUNCTION      0.00     0.00     0  00:00           0           0       0.000 gal
  WWMF109001           JUNCTION      0.00     0.00     0  00:00           0           0       0.000 gal
  WWMF109002           JUNCTION      0.00     0.00     0  00:00           0           0       0.000 gal
  WWMF109003           JUNCTION      0.00     0.00     0  00:00           0           0       0.000 gal
  WWMF109004           JUNCTION      0.00     0.00     0  00:00           0           0       0.000 gal
  WWMF109005           JUNCTION      0.00     0.00     0  00:00           0           0       0.000 gal
  WWMF109006           JUNCTION      0.00     0.00     0  00:00           0           0       0.000 gal
  WWMF109040           JUNCTION      0.00     0.00     0  00:00           0           0       0.000 gal
  WWMF109150           JUNCTION      0.00     0.00     0  00:00           0           0       0.000 gal
  WWMF109153           JUNCTION      0.00     0.00     0  00:00           0           0       0.000 gal
  WWMF117018           JUNCTION      0.00     0.00     0  00:00           0           0       0.000 gal
  WWMF117019           JUNCTION      0.00     0.00     0  00:00           0           0       0.000 gal
  WWMF117020           JUNCTION      0.00     0.00     0  00:00           0           0       0.000 gal
  WWMF117021           JUNCTION      0.00     0.00     0  00:00           0           0       0.000 gal
  WWMF117022           JUNCTION      0.00     0.00     0  00:00           0           0       0.000 gal
  WWMF117023           JUNCTION      0.00     0.00     0  00:00           0           0       0.000 gal
  WWMF117024           JUNCTION      0.00     0.00     0  00:00           0           0       0.000 gal
  WWMF117025           JUNCTION      0.00     0.00     0  00:00           0           0       0.000 gal
  WWMF117026           JUNCTION      0.00     0.00     0  00:00           0           0       0.000 gal
  WWMF117027           JUNCTION      0.00     0.00     0  00:00           0           0       0.000 gal
  WWMF117028           JUNCTION      0.00     0.00     0  00:00           0           0       0.000 gal
  WWMF118001           JUNCTION      0.00     0.00     0  00:00           0           0       0.000 gal
  WWMF118002           JUNCTION      0.00     0.00     0  00:00           0           0       0.000 gal
  WWMF118003           JUNCTION      0.00     0.00     0  00:00           0           0       0.000 gal
  WWMF118023           JUNCTION      0.00     0.00     0  00:00           0           0       0.000 gal
  WWMF118024           JUNCTION      0.00     0.00     0  00:00           0           0       0.000 gal
  WWMF118025           JUNCTION      0.00     0.00     0  00:00           0           0       0.000 gal
  WWMF118026           JUNCTION      0.00     0.00     0  00:00           0           0       0.000 gal
  WWMF118048           JUNCTION      0.00     0.00     0  00:00           0           0       0.000 gal
  WWMF118049           JUNCTION      0.00     0.00     0  00:00           0           0       0.000 gal
  WWMF118050           JUNCTION      0.00     0.00     0  00:00           0           0       0.000 gal
  WWMF127007           JUNCTION      0.00     0.00     0  00:00           0           0       0.000 gal
  WWMF127008           JUNCTION      0.00     0.00     0  00:00           0           0       0.000 gal
  WWMF127009           JUNCTION      0.00     0.00     0  00:00           0           0       0.000 gal
  WWMF127010           JUNCTION      0.00     0.00     0  00:00           0           0       0.000 gal
  WWMF127011           JUNCTION      0.00     0.00     0  00:00           0           0       0.000 gal
  WWMF127012           JUNCTION      0.00     0.00     0  00:00           0           0       0.000 gal
  WWMF127013           JUNCTION      0.00     0.00     0  00:00           0           0       0.000 gal
  WWMF127014           JUNCTION      0.00     0.00     0  00:00           0           0       0.000 gal
  WWMF127015           JUNCTION      0.00     0.00     0  00:00           0           0       0.000 gal
  WWMF127016           JUNCTION      0.00     0.00     0  00:00           0           0       0.000 gal
  WWMF127017           JUNCTION      0.00     0.00     0  00:00           0           0       0.000 gal
  WWMF127044           JUNCTION      0.00     0.00     0  00:00           0           0       0.000 gal
  WWMF127115           JUNCTION      0.00     0.00     0  00:00           0           0       0.000 gal
  WWMF127116           JUNCTION      0.00     0.00     0  00:00           0           0       0.000 gal
  WWMF127117           JUNCTION      0.00     0.00     0  00:00           0           0       0.000 gal
  WWMF127118           JUNCTION      0.00     0.00     0  00:00           0           0       0.000 gal
  WWMF127119           JUNCTION      0.00     0.00     0  00:00           0           0       0.000 gal
  WWMF127203           JUNCTION      0.00     0.00     0  00:00           0           0       0.000 gal
  WWMF127220           JUNCTION      0.00     0.00     0  00:00           0           0       0.000 gal
  WWMF137001           JUNCTION      0.00     0.00     0  00:00           0           0       0.000 gal
  WWMF137002           JUNCTION      0.00     0.00     0  00:00           0           0       0.000 gal
  WWMF137003           JUNCTION      0.00     0.00     0  00:00           0           0       0.000 gal
  WWMF137004           JUNCTION      0.00     0.00     0  00:00           0           0       0.000 gal
  WWMF137005           JUNCTION      0.00     0.00     0  00:00           0           0       0.000 gal
  WWMF137006           JUNCTION      0.00     0.00     0  00:00           0           0       0.000 gal
  WWMF137072           JUNCTION      0.00     0.00     0  00:00           0           0       0.000 gal
  WWMF79028            JUNCTION      0.00     0.00     0  00:00           0           0       0.000 gal
  WWMF79029            JUNCTION      0.00     0.00     0  00:00           0           0       0.000 gal
  WWMF79030            JUNCTION      0.00     0.00     0  00:00           0           0       0.000 gal
  WWMF79031            JUNCTION      0.00     0.00     0  00:00           0           0       0.000 gal
  WWMF89019            JUNCTION      0.00     0.00     0  00:00           0           0       0.000 gal
  WWMF89020            JUNCTION      0.00     0.00     0  00:00           0           0       0.000 gal
  WWMF89021            JUNCTION      0.00     0.00     0  00:00           0           0       0.000 gal
  WWMF89022            JUNCTION      0.00     0.00     0  00:00           0           0       0.000 gal
  WWMF89023            JUNCTION      0.00     0.00     0  00:00           0           0       0.000 gal
  WWMF89024            JUNCTION      0.00     0.00     0  00:00           0           0       0.000 gal
  WWMF89025            JUNCTION      0.00     0.00     0  00:00           0           0       0.000 gal
  WWMF89026            JUNCTION      0.00     0.00     0  00:00           0           0       0.000 gal
  WWMF89027            JUNCTION      0.00     0.00     0  00:00           0           0       0.000 gal
  WWMF89160            JUNCTION      0.00     0.00     0  00:00           0           0       0.000 gal
  WWMF99007            JUNCTION      0.00     0.00     0  00:00           0           0       0.000 gal
  WWMF99008            JUNCTION      0.00     0.00     0  00:00           0           0       0.000 gal
  WWMF99009            JUNCTION      0.00     0.00     0  00:00           0           0       0.000 gal
  WWMF99011            JUNCTION      0.00     0.00     0  00:00           0           0       0.000 gal
  WWMF99012            JUNCTION      0.00     0.00     0  00:00           0           0       0.000 gal
  WWMF99013            JUNCTION      0.00     0.00     0  00:00           0           0       0.000 gal
  WWMF99014            JUNCTION      0.00     0.00     0  00:00           0           0       0.000 gal
  WWMF99015            JUNCTION      0.00     0.00     0  00:00           0           0       0.000 gal
  WWMF99016            JUNCTION      0.00     0.00     0  00:00           0           0       0.000 gal
  WWMF99017            JUNCTION      0.00     0.00     0  00:00           0           0       0.000 gal
  WWMF99018            JUNCTION      0.00     0.00     0  00:00           0           0       0.000 gal
  WWMF99152            JUNCTION      0.00     0.00     0  00:00           0           0       0.000 gal
  WWMG108005           JUNCTION      0.00     0.00     0  00:00           0           0       0.000 gal
  WWMG108006           JUNCTION      0.00     0.00     0  00:00           0           0       0.000 gal
  WWMG108007           JUNCTION      0.00     0.00     0  00:00           0           0       0.000 gal
  WWMG108008           JUNCTION      0.00     0.00     0  00:00           0           0       0.000 gal
  WWMG108009           JUNCTION      0.00     0.00     0  00:00           0           0       0.000 gal
  WWMG108010           JUNCTION      0.00     0.00     0  00:00           0           0       0.000 gal
  WWMG108011           JUNCTION      0.00     0.00     0  00:00           0           0       0.000 gal
  WWMG108080           JUNCTION      0.00     0.00     0  00:00           0           0       0.000 gal
  WWMG109046           JUNCTION      0.00     0.00     0  00:00           0           0       0.000 gal
  WWMG109047           JUNCTION      0.00     0.00     0  00:00           0           0       0.000 gal
  WWMG109048           JUNCTION      0.00     0.00     0  00:00           0           0       0.000 gal
  WWMG109049           JUNCTION      0.00     0.00     0  00:00           0           0       0.000 gal
  WWMG109050           JUNCTION      0.00     0.00     0  00:00           0           0       0.000 gal
  WWMG109051           JUNCTION      0.00     0.00     0  00:00           0           0       0.000 gal
  WWMG114000           JUNCTION      0.00     0.00     0  00:00           0           0       0.000 gal
  WWMG114001           JUNCTION      0.00     0.00     0  00:00           0           0       0.000 gal
  WWMG114002           JUNCTION      0.00     0.00     0  00:00           0           0       0.000 gal
  WWMG116235           JUNCTION      0.00     0.00     0  00:00           0           0       0.000 gal
  WWMG116236           JUNCTION      0.00     0.00     0  00:00           0           0       0.000 gal
  WWMG116237           JUNCTION      0.00     0.00     0  00:00           0           0       0.000 gal
  WWMG116238           JUNCTION      0.00     0.00     0  00:00           0           0       0.000 gal
  WWMG116239           JUNCTION      0.00     0.00     0  00:00           0           0       0.000 gal
  WWMG116240           JUNCTION      0.00     0.00     0  00:00           0           0       0.000 gal
  WWMG116241           JUNCTION      0.00     0.00     0  00:00           0           0       0.000 gal
  WWMG117195           JUNCTION      0.00     0.00     0  00:00           0           0       0.000 gal
  WWMG118004           JUNCTION      0.00     0.00     0  00:00           0           0       0.000 gal
  WWMG118086           JUNCTION      0.00     0.00     0  00:00           0           0       0.000 gal
  WWMG118104           JUNCTION      0.00     0.00     0  00:00           0           0       0.000 gal
  WWMG123072           JUNCTION      0.00     0.00     0  00:00           0           0       0.000 gal
  WWMG123073           JUNCTION      0.00     0.00     0  00:00           0           0       0.000 gal
  WWMG123074           JUNCTION      0.00     0.00     0  00:00           0           0       0.000 gal
  WWMG123075           JUNCTION      0.00     0.00     0  00:00           0           0       0.000 gal
  WWMG123076           JUNCTION      0.00     0.00     0  00:00           0           0       0.000 gal
  WWMG123077           JUNCTION      0.00     0.00     0  00:00           0           0       0.000 gal
  WWMG123078           JUNCTION      0.00     0.00     0  00:00           0           0       0.000 gal
  WWMG123079           JUNCTION      0.00     0.00     0  00:00           0           0       0.000 gal
  WWMG126098           JUNCTION      0.00     0.00     0  00:00           0           0       0.000 gal
  WWMG126102           JUNCTION      0.00     0.00     0  00:00           0           0       0.000 gal
  WWMG126147           JUNCTION      0.00     0.00     0  00:00           0           0       0.000 gal
  WWMG126164           JUNCTION      0.00     0.00     0  00:00           0           0       0.000 gal
  WWMG126200           JUNCTION      0.00     0.00     0  00:00           0           0       0.000 gal
  WWMG126236           JUNCTION      0.00     0.00     0  00:00           0           0       0.000 gal
  WWMG126237           JUNCTION      0.00     0.00     0  00:00           0           0       0.000 gal
  WWMG126238           JUNCTION      0.00     0.00     0  00:00           0           0       0.000 gal
  WWMG126239           JUNCTION      0.00     0.00     0  00:00           0           0       0.000 gal
  WWMG126240           JUNCTION      0.00     0.00     0  00:00           0           0       0.000 gal
  WWMG126241           JUNCTION      0.00     0.00     0  00:00           0           0       0.000 gal
  WWMG126242           JUNCTION      0.00     0.00     0  00:00           0           0       0.000 gal
  WWMG126243           JUNCTION      0.00     0.00     0  00:00           0           0       0.000 gal
  WWMG127109           JUNCTION      0.00     0.00     0  00:00           0           0       0.000 gal
  WWMG127110           JUNCTION      0.00     0.00     0  00:00           0           0       0.000 gal
  WWMG127114           JUNCTION      0.00     0.00     0  00:00           0           0       0.000 gal
  WWMG127133           JUNCTION      0.00     0.00     0  00:00           0           0       0.000 gal
  WWMG127188           JUNCTION      0.00     0.00     0  00:00           0           0       0.000 gal
  WWMG127195           JUNCTION      0.00     0.00     0  00:00           0           0       0.000 gal
  WWMG136015           JUNCTION      0.00     0.00     0  00:00           0           0       0.000 gal
  WWMG136016           JUNCTION      0.00     0.00     0  00:00           0           0       0.000 gal
  WWMG136017           JUNCTION      0.00     0.00     0  00:00           0           0       0.000 gal
  WWMG136018           JUNCTION      0.00     0.00     0  00:00           0           0       0.000 gal
  WWMG136019           JUNCTION      0.00     0.00     0  00:00           0           0       0.000 gal
  WWMG136020           JUNCTION      0.00     0.00     0  00:00           0           0       0.000 gal
  WWMG136021           JUNCTION      0.00     0.00     0  00:00           0           0       0.000 gal
  WWMG136035           JUNCTION      0.00     0.00     0  00:00           0           0       0.000 gal
  WWMG136036           JUNCTION      0.00     0.00     0  00:00           0           0       0.000 gal
  WWMG136037           JUNCTION      0.00     0.00     0  00:00           0           0       0.000 gal
  WWMG136038           JUNCTION      0.00     0.00     0  00:00           0           0       0.000 gal
  WWMG136039           JUNCTION      0.00     0.00     0  00:00           0           0       0.000 gal
  WWMG136050           JUNCTION      0.00     0.00     0  00:00           0           0       0.000 gal
  WWMG136051           JUNCTION      0.00     0.00     0  00:00           0           0       0.000 gal
  WWMG136053           JUNCTION      0.00     0.00     0  00:00           0           0       0.000 gal
  WWMG136054           JUNCTION      0.00     0.00     0  00:00           0           0       0.000 gal
  WWMG136064           JUNCTION      0.00     0.00     0  00:00           0           0       0.000 gal
  WWMG136065           JUNCTION      0.00     0.00     0  00:00           0           0       0.000 gal
  WWMG136066           JUNCTION      0.00     0.00     0  00:00           0           0       0.000 gal
  WWMG136067           JUNCTION      0.00     0.00     0  00:00           0           0       0.000 gal
  WWMG136068           JUNCTION      0.00     0.00     0  00:00           0           0       0.000 gal
  WWMG136069           JUNCTION      0.00     0.00     0  00:00           0           0       0.000 gal
  WWMG136070           JUNCTION      0.00     0.00     0  00:00           0           0       0.000 gal
  WWMG136074           JUNCTION      0.00     0.00     0  00:00           0           0       0.000 gal
  WWMG136095           JUNCTION      0.00     0.00     0  00:00           0           0       0.000 gal
  WWMG136097           JUNCTION      0.00     0.00     0  00:00           0           0       0.000 gal
  WWMG136100           JUNCTION      0.00     0.00     0  00:00           0           0       0.000 gal
  WWMG136254           JUNCTION      0.00     0.00     0  00:00           0           0       0.000 gal
  WWMG136260           JUNCTION      0.00     0.00     0  00:00           0           0       0.000 gal
  WWMG137106           JUNCTION      0.00     0.00     0  00:00           0           0       0.000 gal
  WWMG137107           JUNCTION      0.00     0.00     0  00:00           0           0       0.000 gal
  WWMG137183           JUNCTION      0.00     0.00     0  00:00           0           0       0.000 gal
  WWMG137193           JUNCTION      0.00     0.00     0  00:00           0           0       0.000 gal
  WWMG137194           JUNCTION      0.00     0.00     0  00:00           0           0       0.000 gal
  WWMG137195           JUNCTION      0.00     0.00     0  00:00           0           0       0.000 gal
  WWMG146012           JUNCTION      0.00     0.00     0  00:00           0           0       0.000 gal
  WWMG146013           JUNCTION      0.00     0.00     0  00:00           0           0       0.000 gal
  WWMG146014           JUNCTION      0.00     0.00     0  00:00           0           0       0.000 gal
  WWMG146025           JUNCTION      0.00     0.00     0  00:00           0           0       0.000 gal
  WWMG146030           JUNCTION      0.00     0.00     0  00:00           0           0       0.000 gal
  WWMG146075           JUNCTION      0.00     0.00     0  00:00           0           0       0.000 gal
  WWMG146076           JUNCTION      0.00     0.00     0  00:00           0           0       0.000 gal
  WWMG146077           JUNCTION      0.00     0.00     0  00:00           0           0       0.000 gal
  WWMG146078           JUNCTION      0.00     0.00     0  00:00           0           0       0.000 gal
  WWMG146079           JUNCTION      0.00     0.00     0  00:00           0           0       0.000 gal
  WWMG79032            JUNCTION      0.00     0.00     0  00:00           0           0       0.000 gal
  WWMG79033            JUNCTION      0.00     0.00     0  00:00           0           0       0.000 gal
  WWMG79034            JUNCTION      0.00     0.00     0  00:00           0           0       0.000 gal
  WWMG79195            JUNCTION      0.00     0.00     0  00:00           0           0       0.000 gal
  WWMG79196            JUNCTION      0.00     0.00     0  00:00           0           0       0.000 gal
  WWMG79244            JUNCTION      0.00     0.00     0  00:00           0           0       0.000 gal
  WWMG79245            JUNCTION      0.00     0.00     0  00:00           0           0       0.000 gal
  WWMG79246            JUNCTION      0.00     0.00     0  00:00           0           0       0.000 gal
  WWMG89076            JUNCTION      0.00     0.00     0  00:00           0           0       0.000 gal
  WWMG89185            JUNCTION      0.00     0.00     0  00:00           0           0       0.000 gal
  WWMG89186            JUNCTION      0.00     0.00     0  00:00           0           0       0.000 gal
  WWMG89187            JUNCTION      0.00     0.00     0  00:00           0           0       0.000 gal
  WWMG89189            JUNCTION      0.00     0.00     0  00:00           0           0       0.000 gal
  WWMG89192            JUNCTION      0.00     0.00     0  00:00           0           0       0.000 gal
  WWMG89193            JUNCTION      0.00     0.00     0  00:00           0           0       0.000 gal
  WWMG89194            JUNCTION      0.00     0.00     0  00:00           0           0       0.000 gal
  WWMG89250            JUNCTION      0.00     0.00     0  00:00           0           0       0.000 gal
  WWMG89258            JUNCTION      0.00     0.00     0  00:00           0           0       0.000 gal
  WWMG89259            JUNCTION      0.00     0.00     0  00:00           0           0       0.000 gal
  WWMG89260            JUNCTION      0.00     0.00     0  00:00           0           0       0.000 gal
  WWMG89261            JUNCTION      0.00     0.00     0  00:00           0           0       0.000 gal
  WWMG99099            JUNCTION      0.00     0.00     0  00:00           0           0       0.000 gal
  WWMG99100            JUNCTION      0.00     0.00     0  00:00           0           0       0.000 gal
  WWMG99101            JUNCTION      0.00     0.00     0  00:00           0           0       0.000 gal
  WWMG99102            JUNCTION      0.00     0.00     0  00:00           0           0       0.000 gal
  WWMG99104            JUNCTION      0.00     0.00     0  00:00           0           0       0.000 gal
  WWMG99105            JUNCTION      0.00     0.00     0  00:00           0           0       0.000 gal
  WWMH104008           JUNCTION      0.00     0.00     0  00:00           0           0       0.000 gal
  WWMH104009           JUNCTION      0.00     0.00     0  00:00           0           0       0.000 gal
  WWMH104010           JUNCTION      0.00     0.00     0  00:00           0           0       0.000 gal
  WWMH104011           JUNCTION      0.00     0.00     0  00:00           0           0       0.000 gal
  WWMH104012           JUNCTION      0.00     0.00     0  00:00           0           0       0.000 gal
  WWMH104040           JUNCTION      0.00     0.00     0  00:00           0           0       0.000 gal
  WWMH104041           JUNCTION      0.00     0.00     0  00:00           0           0       0.000 gal
  WWMH104042           JUNCTION      0.00     0.00     0  00:00           0           0       0.000 gal
  WWMH104043           JUNCTION      0.00     0.00     0  00:00           0           0       0.000 gal
  WWMH104044           JUNCTION      0.00     0.00     0  00:00           0           0       0.000 gal
  WWMH105001           JUNCTION      0.00     0.00     0  00:00           0           0       0.000 gal
  WWMH105002           JUNCTION      0.00     0.00     0  00:00           0           0       0.000 gal
  WWMH105003           JUNCTION      0.00     0.00     0  00:00           0           0       0.000 gal
  WWMH105004           JUNCTION      0.00     0.00     0  00:00           0           0       0.000 gal
  WWMH105005           JUNCTION      0.00     0.00     0  00:00           0           0       0.000 gal
  WWMH105017           JUNCTION      0.00     0.00     0  00:00           0           0       0.000 gal
  WWMH114003           JUNCTION      0.00     0.00     0  00:00           0           0       0.000 gal
  WWMH114004           JUNCTION      0.00     0.00     0  00:00           0           0       0.000 gal
  WWMH114005           JUNCTION      0.00     0.00     0  00:00           0           0       0.000 gal
  WWMH114006           JUNCTION      0.00     0.00     0  00:00           0           0       0.000 gal
  WWMH114007           JUNCTION      0.00     0.00     0  00:00           0           0       0.000 gal
  WWMH114026           JUNCTION      0.00     0.00     0  00:00           0           0       0.000 gal
  WWMH114027           JUNCTION      0.00     0.00     0  00:00           0           0       0.000 gal
  WWMH114028           JUNCTION      0.00     0.00     0  00:00           0           0       0.000 gal
  WWMH114029           JUNCTION      0.00     0.00     0  00:00           0           0       0.000 gal
  WWMH114030           JUNCTION      0.00     0.00     0  00:00           0           0       0.000 gal
  WWMH114031           JUNCTION      0.00     0.00     0  00:00           0           0       0.000 gal
  WWMH114033           JUNCTION      0.00     0.00     0  00:00           0           0       0.000 gal
  WWMH114035           JUNCTION      0.00     0.00     0  00:00           0           0       0.000 gal
  WWMH114036           JUNCTION      0.00     0.00     0  00:00           0           0       0.000 gal
  WWMH114037           JUNCTION      0.00     0.00     0  00:00           0           0       0.000 gal
  WWMH114038           JUNCTION      0.00     0.00     0  00:00           0           0       0.000 gal
  WWMH114039           JUNCTION      0.00     0.00     0  00:00           0           0       0.000 gal
  WWMH114127           JUNCTION      0.00     0.00     0  00:00           0           0       0.000 gal
  WWMH114140           JUNCTION      0.00     0.00     0  00:00           0           0       0.000 gal
  WWMH123003           JUNCTION      0.00     0.00     0  00:00           0           0       0.000 gal
  WWMH123004           JUNCTION      0.00     0.00     0  00:00           0           0       0.000 gal
  WWMH123005           JUNCTION      0.00     0.00     0  00:00           0           0       0.000 gal
  WWMH123006           JUNCTION      0.00     0.00     0  00:00           0           0       0.000 gal
  WWMH123007           JUNCTION      0.00     0.00     0  00:00           0           0       0.000 gal
  WWMH123068           JUNCTION      0.00     0.00     0  00:00           0           0       0.000 gal
  WWMH123069           JUNCTION      0.00     0.00     0  00:00           0           0       0.000 gal
  WWMH123070           JUNCTION      0.00     0.00     0  00:00           0           0       0.000 gal
  WWMH123071           JUNCTION      0.00     0.00     0  00:00           0           0       0.000 gal
  WWMH126133           JUNCTION      0.00     0.00     0  00:00           0           0       0.000 gal
  WWMH131073           JUNCTION      0.00     0.00     0  00:00           0           0       0.000 gal
  WWMH131074           JUNCTION      0.00     0.00     0  00:00           0           0       0.000 gal
  WWMH131075           JUNCTION      0.00     0.00     0  00:00           0           0       0.000 gal
  WWMH131080           JUNCTION      0.00     0.00     0  00:00           0           0       0.000 gal
  WWMH131081           JUNCTION      0.00     0.00     0  00:00           0           0       0.000 gal
  WWMH131082           JUNCTION      0.00     0.00     0  00:00           0           0       0.000 gal
  WWMH131083           JUNCTION      0.00     0.00     0  00:00           0           0       0.000 gal
  WWMH133000           JUNCTION      0.00     0.00     0  00:00           0           0       0.000 gal
  WWMH133001           JUNCTION      0.00     0.00     0  00:00           0           0       0.000 gal
  WWMH133002           JUNCTION      0.00     0.00     0  00:00           0           0       0.000 gal
  WWMH133066           JUNCTION      0.00     0.00     0  00:00           0           0       0.000 gal
  WWMH133067           JUNCTION      0.00     0.00     0  00:00           0           0       0.000 gal
  WWMH133096           JUNCTION      0.00     0.00     0  00:00           0           0       0.000 gal
  WWMH136135           JUNCTION      0.00     0.00     0  00:00           0           0       0.000 gal
  WWMH136204           JUNCTION      0.00     0.00     0  00:00           0           0       0.000 gal
  WWMH136247           JUNCTION      0.00     0.00     0  00:00           0           0       0.000 gal
  WWMH136248           JUNCTION      0.00     0.00     0  00:00           0           0       0.000 gal
  WWMH136249           JUNCTION      0.00     0.00     0  00:00           0           0       0.000 gal
  WWMH136250           JUNCTION      0.00     0.00     0  00:00           0           0       0.000 gal
  WWMH136253           JUNCTION      0.00     0.00     0  00:00           0           0       0.000 gal
  WWMH136262           JUNCTION      0.00     0.00     0  00:00           0           0       0.000 gal
  WWMH141000           JUNCTION      0.00     0.00     0  00:00           0           0       0.000 gal
  WWMH141001           JUNCTION      0.00     0.00     0  00:00           0           0       0.000 gal
  WWMH141002           JUNCTION      0.00     0.00     0  00:00           0           0       0.000 gal
  WWMH141003           JUNCTION      0.00     0.00     0  00:00           0           0       0.000 gal
  WWMH141004           JUNCTION      0.00     0.00     0  00:00           0           0       0.000 gal
  WWMH141005           JUNCTION      0.00     0.00     0  00:00           0           0       0.000 gal
  WWMH141006           JUNCTION      0.00     0.00     0  00:00           0           0       0.000 gal
  WWMH141007           JUNCTION      0.00     0.00     0  00:00           0           0       0.000 gal
  WWMH141071           JUNCTION      0.00     0.00     0  00:00           0           0       0.000 gal
  WWMH141072           JUNCTION      0.00     0.00     0  00:00           0           0       0.000 gal
  WWMH146000           JUNCTION      0.00     0.00     0  00:00           0           0       0.000 gal
  WWMH146001           JUNCTION      0.00     0.00     0  00:00           0           0       0.000 gal
  WWMH146002           JUNCTION      0.00     0.00     0  00:00           0           0       0.000 gal
  WWMH146003           JUNCTION      0.00     0.00     0  00:00           0           0       0.000 gal
  WWMH146004           JUNCTION      0.00     0.00     0  00:00           0           0       0.000 gal
  WWMH146005           JUNCTION      0.00     0.00     0  00:00           0           0       0.000 gal
  WWMH146006           JUNCTION      0.00     0.00     0  00:00           0           0       0.000 gal
  WWMH146007           JUNCTION      0.00     0.00     0  00:00           0           0       0.000 gal
  WWMH146008           JUNCTION      0.00     0.00     0  00:00           0           0       0.000 gal
  WWMH146246           JUNCTION      0.00     0.00     0  00:00           0           0       0.000 gal
  WWMH146247           JUNCTION      0.00     0.00     0  00:00           0           0       0.000 gal
  WWMH95018            JUNCTION      0.00     0.00     0  00:00           0           0       0.000 gal
  WWMH95019            JUNCTION      0.00     0.00     0  00:00           0           0       0.000 gal
  WWMH95020            JUNCTION      0.00     0.00     0  00:00           0           0       0.000 gal
  WWMH95021            JUNCTION      0.00     0.00     0  00:00           0           0       0.000 gal
  WWMH95022            JUNCTION      0.00     0.00     0  00:00           0           0       0.000 gal
  WWMH95023            JUNCTION      0.00     0.00     0  00:00           0           0       0.000 gal
  WWMH95024            JUNCTION      0.00     0.00     0  00:00           0           0       0.000 gal
  WWMI102001           JUNCTION      0.00     0.00     0  00:00           0           0       0.000 gal
  WWMI102002           JUNCTION      0.00     0.00     0  00:00           0           0       0.000 gal
  WWMI102003           JUNCTION      0.00     0.00     0  00:00           0           0       0.000 gal
  WWMI102066           JUNCTION      0.00     0.00     0  00:00           0           0       0.000 gal
  WWMI102067           JUNCTION      0.00     0.00     0  00:00           0           0       0.000 gal
  WWMI102068           JUNCTION      0.00     0.00     0  00:00           0           0       0.000 gal
  WWMI102069           JUNCTION      0.00     0.00     0  00:00           0           0       0.000 gal
  WWMI102070           JUNCTION      0.00     0.00     0  00:00           0           0       0.000 gal
  WWMI102071           JUNCTION      0.00     0.00     0  00:00           0           0       0.000 gal
  WWMI102072           JUNCTION      0.00     0.00     0  00:00           0           0       0.000 gal
  WWMI102073           JUNCTION      0.00     0.00     0  00:00           0           0       0.000 gal
  WWMI102131           JUNCTION      0.00     0.00     0  00:00           0           0       0.000 gal
  WWMI102132           JUNCTION      0.00     0.00     0  00:00           0           0       0.000 gal
  WWMI104050           JUNCTION      0.00     0.00     0  00:00           0           0       0.000 gal
  WWMI104051           JUNCTION      0.00     0.00     0  00:00           0           0       0.000 gal
  WWMI111032           JUNCTION      0.00     0.00     0  00:00           0           0       0.000 gal
  WWMI111035           JUNCTION      0.00     0.00     0  00:00           0           0       0.000 gal
  WWMI111036           JUNCTION      0.00     0.00     0  00:00           0           0       0.000 gal
  WWMI111037           JUNCTION      0.00     0.00     0  00:00           0           0       0.000 gal
  WWMI111040           JUNCTION      0.00     0.00     0  00:00           0           0       0.000 gal
  WWMI111053           JUNCTION      0.00     0.00     0  00:00           0           0       0.000 gal
  WWMI111099           JUNCTION      0.00     0.00     0  00:00           0           0       0.000 gal
  WWMI112000           JUNCTION      0.00     0.00     0  00:00           0           0       0.000 gal
  WWMI121026           JUNCTION      0.00     0.00     0  00:00           0           0       0.000 gal
  WWMI121027           JUNCTION      0.00     0.00     0  00:00           0           0       0.000 gal
  WWMI121028           JUNCTION      0.00     0.00     0  00:00           0           0       0.000 gal
  WWMI121029           JUNCTION      0.00     0.00     0  00:00           0           0       0.000 gal
  WWMI121030           JUNCTION      0.00     0.00     0  00:00           0           0       0.000 gal
  WWMI121031           JUNCTION      0.00     0.00     0  00:00           0           0       0.000 gal
[...]
  WWGM1463                1.00   -nan(ind)  -nan(ind)  -nan(ind)  -nan(ind)  -nan(ind)  -nan(ind)  -nan(ind)  -nan(ind)  -nan(ind)
  WWGM1464                1.00   -nan(ind)  -nan(ind)  -nan(ind)  -nan(ind)  -nan(ind)  -nan(ind)  -nan(ind)  -nan(ind)  -nan(ind)
  WWGM1465                1.00   -nan(ind)  -nan(ind)  -nan(ind)  -nan(ind)  -nan(ind)  -nan(ind)  -nan(ind)  -nan(ind)  -nan(ind)
  WWGM1470                1.00   -nan(ind)  -nan(ind)  -nan(ind)  -nan(ind)  -nan(ind)  -nan(ind)  -nan(ind)  -nan(ind)  -nan(ind)
  WWGM1476                1.00   -nan(ind)  -nan(ind)  -nan(ind)  -nan(ind)  -nan(ind)  -nan(ind)  -nan(ind)  -nan(ind)  -nan(ind)
  WWGM1477                1.00   -nan(ind)  -nan(ind)  -nan(ind)  -nan(ind)  -nan(ind)  -nan(ind)  -nan(ind)  -nan(ind)  -nan(ind)
  WWGM1480                1.00   -nan(ind)  -nan(ind)  -nan(ind)  -nan(ind)  -nan(ind)  -nan(ind)  -nan(ind)  -nan(ind)  -nan(ind)
  WWGM1481                1.00   -nan(ind)  -nan(ind)  -nan(ind)  -nan(ind)  -nan(ind)  -nan(ind)  -nan(ind)  -nan(ind)  -nan(ind)
  WWGM1529                1.00   -nan(ind)  -nan(ind)  -nan(ind)  -nan(ind)  -nan(ind)  -nan(ind)  -nan(ind)  -nan(ind)  -nan(ind)
  WWGM1534                1.00   -nan(ind)  -nan(ind)  -nan(ind)  -nan(ind)  -nan(ind)  -nan(ind)  -nan(ind)  -nan(ind)  -nan(ind)
  WWGM1539                1.00   -nan(ind)  -nan(ind)  -nan(ind)  -nan(ind)  -nan(ind)  -nan(ind)  -nan(ind)  -nan(ind)  -nan(ind)
  WWGM1547                1.00   -nan(ind)  -nan(ind)  -nan(ind)  -nan(ind)  -nan(ind)  -nan(ind)  -nan(ind)  -nan(ind)  -nan(ind)
  WWGM1548                1.00   -nan(ind)  -nan(ind)  -nan(ind)  -nan(ind)  -nan(ind)  -nan(ind)  -nan(ind)  -nan(ind)  -nan(ind)
  WWGM1551                1.00   -nan(ind)  -nan(ind)  -nan(ind)  -nan(ind)  -nan(ind)  -nan(ind)  -nan(ind)  -nan(ind)  -nan(ind)
  WWGM1552                1.00   -nan(ind)  -nan(ind)  -nan(ind)  -nan(ind)  -nan(ind)  -nan(ind)  -nan(ind)  -nan(ind)  -nan(ind)
  WWGM1553                3.68   -nan(ind)  -nan(ind)  -nan(ind)  -nan(ind)  -nan(ind)  -nan(ind)  -nan(ind)  -nan(ind)  -nan(ind)
  WWGM1554                1.00   -nan(ind)  -nan(ind)  -nan(ind)  -nan(ind)  -nan(ind)  -nan(ind)  -nan(ind)  -nan(ind)  -nan(ind)
  WWGM1555                1.00   -nan(ind)  -nan(ind)  -nan(ind)  -nan(ind)  -nan(ind)  -nan(ind)  -nan(ind)  -nan(ind)  -nan(ind)
  WWGM1557                1.00   -nan(ind)  -nan(ind)  -nan(ind)  -nan(ind)  -nan(ind)  -nan(ind)  -nan(ind)  -nan(ind)  -nan(ind)
  WWGM1560                1.00   -nan(ind)  -nan(ind)  -nan(ind)  -nan(ind)  -nan(ind)  -nan(ind)  -nan(ind)  -nan(ind)  -nan(ind)
  WWGM1564                1.57   -nan(ind)  -nan(ind)  -nan(ind)  -nan(ind)  -nan(ind)  -nan(ind)  -nan(ind)  -nan(ind)  -nan(ind)
  WWGM1565                1.00   -nan(ind)  -nan(ind)  -nan(ind)  -nan(ind)  -nan(ind)  -nan(ind)  -nan(ind)  -nan(ind)  -nan(ind)
  WWGM1566                1.00   -nan(ind)  -nan(ind)  -nan(ind)  -nan(ind)  -nan(ind)  -nan(ind)  -nan(ind)  -nan(ind)  -nan(ind)
  WWGM1567                1.00   -nan(ind)  -nan(ind)  -nan(ind)  -nan(ind)  -nan(ind)  -nan(ind)  -nan(ind)  -nan(ind)  -nan(ind)
  WWGM1568                1.00   -nan(ind)  -nan(ind)  -nan(ind)  -nan(ind)  -nan(ind)  -nan(ind)  -nan(ind)  -nan(ind)  -nan(ind)
  WWGM1569                7.89   -nan(ind)  -nan(ind)  -nan(ind)  -nan(ind)  -nan(ind)  -nan(ind)  -nan(ind)  -nan(ind)  -nan(ind)
  WWGM1570                1.00   -nan(ind)  -nan(ind)  -nan(ind)  -nan(ind)  -nan(ind)  -nan(ind)  -nan(ind)  -nan(ind)  -nan(ind)
  WWGM1571                1.00   -nan(ind)  -nan(ind)  -nan(ind)  -nan(ind)  -nan(ind)  -nan(ind)  -nan(ind)  -nan(ind)  -nan(ind)
  WWGM1572                1.00   -nan(ind)  -nan(ind)  -nan(ind)  -nan(ind)  -nan(ind)  -nan(ind)  -nan(ind)  -nan(ind)  -nan(ind)
  WWGM1573                1.00   -nan(ind)  -nan(ind)  -nan(ind)  -nan(ind)  -nan(ind)  -nan(ind)  -nan(ind)  -nan(ind)  -nan(ind)
  WWGM1574                1.00   -nan(ind)  -nan(ind)  -nan(ind)  -nan(ind)  -nan(ind)  -nan(ind)  -nan(ind)  -nan(ind)  -nan(ind)
  WWGM1575                1.00   -nan(ind)  -nan(ind)  -nan(ind)  -nan(ind)  -nan(ind)  -nan(ind)  -nan(ind)  -nan(ind)  -nan(ind)
  WWGM1590                1.00   -nan(ind)  -nan(ind)  -nan(ind)  -nan(ind)  -nan(ind)  -nan(ind)  -nan(ind)  -nan(ind)  -nan(ind)
  WWGM1591                2.07   -nan(ind)  -nan(ind)  -nan(ind)  -nan(ind)  -nan(ind)  -nan(ind)  -nan(ind)  -nan(ind)  -nan(ind)
  WWGM1592                1.00   -nan(ind)  -nan(ind)  -nan(ind)  -nan(ind)  -nan(ind)  -nan(ind)  -nan(ind)  -nan(ind)  -nan(ind)
  WWGM1603                1.00   -nan(ind)  -nan(ind)  -nan(ind)  -nan(ind)  -nan(ind)  -nan(ind)  -nan(ind)  -nan(ind)  -nan(ind)
  WWGM1604                1.00   -nan(ind)  -nan(ind)  -nan(ind)  -nan(ind)  -nan(ind)  -nan(ind)  -nan(ind)  -nan(ind)  -nan(ind)
  WWGM1605                1.00   -nan(ind)  -nan(ind)  -nan(ind)  -nan(ind)  -nan(ind)  -nan(ind)  -nan(ind)  -nan(ind)  -nan(ind)
  WWGM1606                1.00   -nan(ind)  -nan(ind)  -nan(ind)  -nan(ind)  -nan(ind)  -nan(ind)  -nan(ind)  -nan(ind)  -nan(ind)
  WWGM1607                1.00   -nan(ind)  -nan(ind)  -nan(ind)  -nan(ind)  -nan(ind)  -nan(ind)  -nan(ind)  -nan(ind)  -nan(ind)
  WWGM1614                1.00   -nan(ind)  -nan(ind)  -nan(ind)  -nan(ind)  -nan(ind)  -nan(ind)  -nan(ind)  -nan(ind)  -nan(ind)
  WWGM1617                1.00   -nan(ind)  -nan(ind)  -nan(ind)  -nan(ind)  -nan(ind)  -nan(ind)  -nan(ind)  -nan(ind)  -nan(ind)
  WWGM1618                1.00   -nan(ind)  -nan(ind)  -nan(ind)  -nan(ind)  -nan(ind)  -nan(ind)  -nan(ind)  -nan(ind)  -nan(ind)
  WWGM1619                1.00   -nan(ind)  -nan(ind)  -nan(ind)  -nan(ind)  -nan(ind)  -nan(ind)  -nan(ind)  -nan(ind)  -nan(ind)
  WWGM1639                1.00   -nan(ind)  -nan(ind)  -nan(ind)  -nan(ind)  -nan(ind)  -nan(ind)  -nan(ind)  -nan(ind)  -nan(ind)
  WWGM1641                1.00   -nan(ind)  -nan(ind)  -nan(ind)  -nan(ind)  -nan(ind)  -nan(ind)  -nan(ind)  -nan(ind)  -nan(ind)
  WWGM1642                3.46   -nan(ind)  -nan(ind)  -nan(ind)  -nan(ind)  -nan(ind)  -nan(ind)  -nan(ind)  -nan(ind)  -nan(ind)
  WWGM1643               11.28   -nan(ind)  -nan(ind)  -nan(ind)  -nan(ind)  -nan(ind)  -nan(ind)  -nan(ind)  -nan(ind)  -nan(ind)
  WWGM1644                1.00   -nan(ind)  -nan(ind)  -nan(ind)  -nan(ind)  -nan(ind)  -nan(ind)  -nan(ind)  -nan(ind)  -nan(ind)
  WWGM1645                1.00   -nan(ind)  -nan(ind)  -nan(ind)  -nan(ind)  -nan(ind)  -nan(ind)  -nan(ind)  -nan(ind)  -nan(ind)
  WWGM1646                1.00   -nan(ind)  -nan(ind)  -nan(ind)  -nan(ind)  -nan(ind)  -nan(ind)  -nan(ind)  -nan(ind)  -nan(ind)
  WWGM1647                1.00   -nan(ind)  -nan(ind)  -nan(ind)  -nan(ind)  -nan(ind)  -nan(ind)  -nan(ind)  -nan(ind)  -nan(ind)
  WWGM1648                1.00   -nan(ind)  -nan(ind)  -nan(ind)  -nan(ind)  -nan(ind)  -nan(ind)  -nan(ind)  -nan(ind)  -nan(ind)
  WWGM1649                1.00   -nan(ind)  -nan(ind)  -nan(ind)  -nan(ind)  -nan(ind)  -nan(ind)  -nan(ind)  -nan(ind)  -nan(ind)
  WWGM1650                1.00   -nan(ind)  -nan(ind)  -nan(ind)  -nan(ind)  -nan(ind)  -nan(ind)  -nan(ind)  -nan(ind)  -nan(ind)
  WWGM1653                1.00   -nan(ind)  -nan(ind)  -nan(ind)  -nan(ind)  -nan(ind)  -nan(ind)  -nan(ind)  -nan(ind)  -nan(ind)
  WWGM1654                1.00   -nan(ind)  -nan(ind)  -nan(ind)  -nan(ind)  -nan(ind)  -nan(ind)  -nan(ind)  -nan(ind)  -nan(ind)
  WWGM1655                1.00   -nan(ind)  -nan(ind)  -nan(ind)  -nan(ind)  -nan(ind)  -nan(ind)  -nan(ind)  -nan(ind)  -nan(ind)
  WWGM1669                1.00   -nan(ind)  -nan(ind)  -nan(ind)  -nan(ind)  -nan(ind)  -nan(ind)  -nan(ind)  -nan(ind)  -nan(ind)
  WWGM1685                1.00   -nan(ind)  -nan(ind)  -nan(ind)  -nan(ind)  -nan(ind)  -nan(ind)  -nan(ind)  -nan(ind)  -nan(ind)
  WWGM1689                1.00   -nan(ind)  -nan(ind)  -nan(ind)  -nan(ind)  -nan(ind)  -nan(ind)  -nan(ind)  -nan(ind)  -nan(ind)
  WWGM1709                1.00   -nan(ind)  -nan(ind)  -nan(ind)  -nan(ind)  -nan(ind)  -nan(ind)  -nan(ind)  -nan(ind)  -nan(ind)
  WWGM1710                1.00   -nan(ind)  -nan(ind)  -nan(ind)  -nan(ind)  -nan(ind)  -nan(ind)  -nan(ind)  -nan(ind)  -nan(ind)
  WWGM1713                1.00   -nan(ind)  -nan(ind)  -nan(ind)  -nan(ind)  -nan(ind)  -nan(ind)  -nan(ind)  -nan(ind)  -nan(ind)
  WWGM1718                1.00   -nan(ind)  -nan(ind)  -nan(ind)  -nan(ind)  -nan(ind)  -nan(ind)  -nan(ind)  -nan(ind)  -nan(ind)
  WWGM1739                1.00   -nan(ind)  -nan(ind)  -nan(ind)  -nan(ind)  -nan(ind)  -nan(ind)  -nan(ind)  -nan(ind)  -nan(ind)
  WWGM1740                2.25   -nan(ind)  -nan(ind)  -nan(ind)  -nan(ind)  -nan(ind)  -nan(ind)  -nan(ind)  -nan(ind)  -nan(ind)
  WWGM1742                1.00   -nan(ind)  -nan(ind)  -nan(ind)  -nan(ind)  -nan(ind)  -nan(ind)  -nan(ind)  -nan(ind)  -nan(ind)
  WWGM1743                1.00   -nan(ind)  -nan(ind)  -nan(ind)  -nan(ind)  -nan(ind)  -nan(ind)  -nan(ind)  -nan(ind)  -nan(ind)
  WWGM1753                1.00   -nan(ind)  -nan(ind)  -nan(ind)  -nan(ind)  -nan(ind)  -nan(ind)  -nan(ind)  -nan(ind)  -nan(ind)
  WWGM1755                1.00   -nan(ind)  -nan(ind)  -nan(ind)  -nan(ind)  -nan(ind)  -nan(ind)  -nan(ind)  -nan(ind)  -nan(ind)
  WWGM1756                1.00   -nan(ind)  -nan(ind)  -nan(ind)  -nan(ind)  -nan(ind)  -nan(ind)  -nan(ind)  -nan(ind)  -nan(ind)
  WWGM1760                1.00   -nan(ind)  -nan(ind)  -nan(ind)  -nan(ind)  -nan(ind)  -nan(ind)  -nan(ind)  -nan(ind)  -nan(ind)
  WWGM1762                1.00   -nan(ind)  -nan(ind)  -nan(ind)  -nan(ind)  -nan(ind)  -nan(ind)  -nan(ind)  -nan(ind)  -nan(ind)
  WWGM1763                1.00   -nan(ind)  -nan(ind)  -nan(ind)  -nan(ind)  -nan(ind)  -nan(ind)  -nan(ind)  -nan(ind)  -nan(ind)
  WWGM1764                1.00   -nan(ind)  -nan(ind)  -nan(ind)  -nan(ind)  -nan(ind)  -nan(ind)  -nan(ind)  -nan(ind)  -nan(ind)
  WWGM1766                1.00   -nan(ind)  -nan(ind)  -nan(ind)  -nan(ind)  -nan(ind)  -nan(ind)  -nan(ind)  -nan(ind)  -nan(ind)
  WWGM1767                1.00   -nan(ind)  -nan(ind)  -nan(ind)  -nan(ind)  -nan(ind)  -nan(ind)  -nan(ind)  -nan(ind)  -nan(ind)
  WWGM1768                1.00   -nan(ind)  -nan(ind)  -nan(ind)  -nan(ind)  -nan(ind)  -nan(ind)  -nan(ind)  -nan(ind)  -nan(ind)
  WWGM1769                1.00   -nan(ind)  -nan(ind)  -nan(ind)  -nan(ind)  -nan(ind)  -nan(ind)  -nan(ind)  -nan(ind)  -nan(ind)
  WWGM1770                1.00   -nan(ind)  -nan(ind)  -nan(ind)  -nan(ind)  -nan(ind)  -nan(ind)  -nan(ind)  -nan(ind)  -nan(ind)
  WWGM1771                1.00   -nan(ind)  -nan(ind)  -nan(ind)  -nan(ind)  -nan(ind)  -nan(ind)  -nan(ind)  -nan(ind)  -nan(ind)
  WWGM1773                1.00   -nan(ind)  -nan(ind)  -nan(ind)  -nan(ind)  -nan(ind)  -nan(ind)  -nan(ind)  -nan(ind)  -nan(ind)
  WWGM1779                1.00   -nan(ind)  -nan(ind)  -nan(ind)  -nan(ind)  -nan(ind)  -nan(ind)  -nan(ind)  -nan(ind)  -nan(ind)
  WWGM1780                1.00   -nan(ind)  -nan(ind)  -nan(ind)  -nan(ind)  -nan(ind)  -nan(ind)  -nan(ind)  -nan(ind)  -nan(ind)
  WWGM1781                1.00   -nan(ind)  -nan(ind)  -nan(ind)  -nan(ind)  -nan(ind)  -nan(ind)  -nan(ind)  -nan(ind)  -nan(ind)
  WWGM1782                1.00   -nan(ind)  -nan(ind)  -nan(ind)  -nan(ind)  -nan(ind)  -nan(ind)  -nan(ind)  -nan(ind)  -nan(ind)
  WWGM1788                1.00   -nan(ind)  -nan(ind)  -nan(ind)  -nan(ind)  -nan(ind)  -nan(ind)  -nan(ind)  -nan(ind)  -nan(ind)
  WWGM1790                1.00   -nan(ind)  -nan(ind)  -nan(ind)  -nan(ind)  -nan(ind)  -nan(ind)  -nan(ind)  -nan(ind)  -nan(ind)
  WWGM1791                1.00   -nan(ind)  -nan(ind)  -nan(ind)  -nan(ind)  -nan(ind)  -nan(ind)  -nan(ind)  -nan(ind)  -nan(ind)
  WWGM1792                1.66   -nan(ind)  -nan(ind)  -nan(ind)  -nan(ind)  -nan(ind)  -nan(ind)  -nan(ind)  -nan(ind)  -nan(ind)
  WWGM1793                1.45   -nan(ind)  -nan(ind)  -nan(ind)  -nan(ind)  -nan(ind)  -nan(ind)  -nan(ind)  -nan(ind)  -nan(ind)
  WWGM1794                1.00   -nan(ind)  -nan(ind)  -nan(ind)  -nan(ind)  -nan(ind)  -nan(ind)  -nan(ind)  -nan(ind)  -nan(ind)
  WWGM1795                1.00   -nan(ind)  -nan(ind)  -nan(ind)  -nan(ind)  -nan(ind)  -nan(ind)  -nan(ind)  -nan(ind)  -nan(ind)
  WWGM1796                1.00   -nan(ind)  -nan(ind)  -nan(ind)  -nan(ind)  -nan(ind)  -nan(ind)  -nan(ind)  -nan(ind)  -nan(ind)
  WWGM1798                1.00   -nan(ind)  -nan(ind)  -nan(ind)  -nan(ind)  -nan(ind)  -nan(ind)  -nan(ind)  -nan(ind)  -nan(ind)
  WWGM1799                1.00   -nan(ind)  -nan(ind)  -nan(ind)  -nan(ind)  -nan(ind)  -nan(ind)  -nan(ind)  -nan(ind)  -nan(ind)
  WWGM1800                1.00   -nan(ind)  -nan(ind)  -nan(ind)  -nan(ind)  -nan(ind)  -nan(ind)  -nan(ind)  -nan(ind)  -nan(ind)
  WWGM1802                1.00   -nan(ind)  -nan(ind)  -nan(ind)  -nan(ind)  -nan(ind)  -nan(ind)  -nan(ind)  -nan(ind)  -nan(ind)
  WWGM1810                1.00   -nan(ind)  -nan(ind)  -nan(ind)  -nan(ind)  -nan(ind)  -nan(ind)  -nan(ind)  -nan(ind)  -nan(ind)
  WWGM1811                1.00   -nan(ind)  -nan(ind)  -nan(ind)  -nan(ind)  -nan(ind)  -nan(ind)  -nan(ind)  -nan(ind)  -nan(ind)
  WWGM1812                1.00   -nan(ind)  -nan(ind)  -nan(ind)  -nan(ind)  -nan(ind)  -nan(ind)  -nan(ind)  -nan(ind)  -nan(ind)
  WWGM1828                1.00   -nan(ind)  -nan(ind)  -nan(ind)  -nan(ind)  -nan(ind)  -nan(ind)  -nan(ind)  -nan(ind)  -nan(ind)
  WWGM1834                1.00   -nan(ind)  -nan(ind)  -nan(ind)  -nan(ind)  -nan(ind)  -nan(ind)  -nan(ind)  -nan(ind)  -nan(ind)
  WWGM1835                1.00   -nan(ind)  -nan(ind)  -nan(ind)  -nan(ind)  -nan(ind)  -nan(ind)  -nan(ind)  -nan(ind)  -nan(ind)
  WWGM1837                1.00   -nan(ind)  -nan(ind)  -nan(ind)  -nan(ind)  -nan(ind)  -nan(ind)  -nan(ind)  -nan(ind)  -nan(ind)
  WWGM1839                1.00   -nan(ind)  -nan(ind)  -nan(ind)  -nan(ind)  -nan(ind)  -nan(ind)  -nan(ind)  -nan(ind)  -nan(ind)
  WWGM1840                1.00   -nan(ind)  -nan(ind)  -nan(ind)  -nan(ind)  -nan(ind)  -nan(ind)  -nan(ind)  -nan(ind)  -nan(ind)
  WWGM1842                1.00   -nan(ind)  -nan(ind)  -nan(ind)  -nan(ind)  -nan(ind)  -nan(ind)  -nan(ind)  -nan(ind)  -nan(ind)
  WWGM1967                4.50   -nan(ind)  -nan(ind)  -nan(ind)  -nan(ind)  -nan(ind)  -nan(ind)  -nan(ind)  -nan(ind)  -nan(ind)
  WWGM2024                1.00   -nan(ind)  -nan(ind)  -nan(ind)  -nan(ind)  -nan(ind)  -nan(ind)  -nan(ind)  -nan(ind)  -nan(ind)
  WWGM2025                2.14   -nan(ind)  -nan(ind)  -nan(ind)  -nan(ind)  -nan(ind)  -nan(ind)  -nan(ind)  -nan(ind)  -nan(ind)
  WWGM2026                1.00   -nan(ind)  -nan(ind)  -nan(ind)  -nan(ind)  -nan(ind)  -nan(ind)  -nan(ind)  -nan(ind)  -nan(ind)
  WWGM2035                1.00   -nan(ind)  -nan(ind)  -nan(ind)  -nan(ind)  -nan(ind)  -nan(ind)  -nan(ind)  -nan(ind)  -nan(ind)
  WWGM2037                1.00   -nan(ind)  -nan(ind)  -nan(ind)  -nan(ind)  -nan(ind)  -nan(ind)  -nan(ind)  -nan(ind)  -nan(ind)
  WWGM2039                1.00   -nan(ind)  -nan(ind)  -nan(ind)  -nan(ind)  -nan(ind)  -nan(ind)  -nan(ind)  -nan(ind)  -nan(ind)
  WWGM2053                2.31   -nan(ind)  -nan(ind)  -nan(ind)  -nan(ind)  -nan(ind)  -nan(ind)  -nan(ind)  -nan(ind)  -nan(ind)
  WWGM2054                1.07   -nan(ind)  -nan(ind)  -nan(ind)  -nan(ind)  -nan(ind)  -nan(ind)  -nan(ind)  -nan(ind)  -nan(ind)
  WWGM2073                1.40   -nan(ind)  -nan(ind)  -nan(ind)  -nan(ind)  -nan(ind)  -nan(ind)  -nan(ind)  -nan(ind)  -nan(ind)
  WWGM2074                3.12   -nan(ind)  -nan(ind)  -nan(ind)  -nan(ind)  -nan(ind)  -nan(ind)  -nan(ind)  -nan(ind)  -nan(ind)
  WWGM2075                1.25   -nan(ind)  -nan(ind)  -nan(ind)  -nan(ind)  -nan(ind)  -nan(ind)  -nan(ind)  -nan(ind)  -nan(ind)
  WWGM2076                1.00   -nan(ind)  -nan(ind)  -nan(ind)  -nan(ind)  -nan(ind)  -nan(ind)  -nan(ind)  -nan(ind)  -nan(ind)
  WWGM2077                1.00   -nan(ind)  -nan(ind)  -nan(ind)  -nan(ind)  -nan(ind)  -nan(ind)  -nan(ind)  -nan(ind)  -nan(ind)
  WWGM2078                1.67   -nan(ind)  -nan(ind)  -nan(ind)  -nan(ind)  -nan(ind)  -nan(ind)  -nan(ind)  -nan(ind)  -nan(ind)
  WWGM2093                1.00   -nan(ind)  -nan(ind)  -nan(ind)  -nan(ind)  -nan(ind)  -nan(ind)  -nan(ind)  -nan(ind)  -nan(ind)
  WWGM2094                1.00   -nan(ind)  -nan(ind)  -nan(ind)  -nan(ind)  -nan(ind)  -nan(ind)  -nan(ind)  -nan(ind)  -nan(ind)
  WWGM2110                1.00   -nan(ind)  -nan(ind)  -nan(ind)  -nan(ind)  -nan(ind)  -nan(ind)  -nan(ind)  -nan(ind)  -nan(ind)
  WWGM2119                1.00   -nan(ind)  -nan(ind)  -nan(ind)  -nan(ind)  -nan(ind)  -nan(ind)  -nan(ind)  -nan(ind)  -nan(ind)
  WWGM2137                1.85   -nan(ind)  -nan(ind)  -nan(ind)  -nan(ind)  -nan(ind)  -nan(ind)  -nan(ind)  -nan(ind)  -nan(ind)
  WWGM2146                1.00   -nan(ind)  -nan(ind)  -nan(ind)  -nan(ind)  -nan(ind)  -nan(ind)  -nan(ind)  -nan(ind)  -nan(ind)
  WWGM2147               16.68   -nan(ind)  -nan(ind)  -nan(ind)  -nan(ind)  -nan(ind)  -nan(ind)  -nan(ind)  -nan(ind)  -nan(ind)
  WWGM2148                9.16   -nan(ind)  -nan(ind)  -nan(ind)  -nan(ind)  -nan(ind)  -nan(ind)  -nan(ind)  -nan(ind)  -nan(ind)
  WWGM2149                1.00   -nan(ind)  -nan(ind)  -nan(ind)  -nan(ind)  -nan(ind)  -nan(ind)  -nan(ind)  -nan(ind)  -nan(ind)
  WWGM2150                4.25   -nan(ind)  -nan(ind)  -nan(ind)  -nan(ind)  -nan(ind)  -nan(ind)  -nan(ind)  -nan(ind)  -nan(ind)
  WWGM2151                1.00   -nan(ind)  -nan(ind)  -nan(ind)  -nan(ind)  -nan(ind)  -nan(ind)  -nan(ind)  -nan(ind)  -nan(ind)
  WWGM2152                1.00   -nan(ind)  -nan(ind)  -nan(ind)  -nan(ind)  -nan(ind)  -nan(ind)  -nan(ind)  -nan(ind)  -nan(ind)
  
  
  *************************
  Conduit Surcharge Summary
  *************************
  
  No conduits were surcharged.
  
  
  ***************
  Pumping Summary
  ***************
  
  ---------------------------------------------------------------------------------------------------------
                                                  Min       Avg       Max     Total     Power    % Time Off
                        Percent   Number of      Flow      Flow      Flow    Volume     Usage    Pump Curve
  Pump                 Utilized   Start-Ups       CFS       CFS       CFS  10^6 gal     Kw-hr    Low   High
  ---------------------------------------------------------------------------------------------------------
  PUMP-CHEHAL1         -nan(ind)           0      0.00      0.00      0.00     0.000      0.00    0.0    0.0
  PUMP-CREEKSD1        -nan(ind)           0      0.00      0.00      0.00     0.000      0.00    0.0    0.0
  PUMP-DAY1            -nan(ind)           0      0.00      0.00      0.00     0.000      0.00    0.0    0.0
  PUMP-DAY2            -nan(ind)           0      0.00      0.00      0.00     0.000      0.00    0.0    0.0
  PUMP-FERN1           -nan(ind)           0      0.00      0.00      0.00     0.000      0.00    0.0    0.0
  PUMP-FERN2           -nan(ind)           0      0.00      0.00      0.00     0.000      0.00    0.0    0.0
  PUMP-HWY240_1        -nan(ind)           0      0.00      0.00      0.00     0.000      0.00    0.0    0.0
  PUMP-HWY240_2        -nan(ind)           0      0.00      0.00      0.00     0.000      0.00    0.0    0.0
  PUMP-PROVIDENCE1     -nan(ind)           0      0.00      0.00      0.00     0.000      0.00    0.0    0.0
  PUMP-RIVERFRONT1     -nan(ind)           0      0.00      0.00      0.00     0.000      0.00    0.0    0.0
  PUMP-SHER1           -nan(ind)           0      0.00      0.00      0.00     0.000      0.00    0.0    0.0
  

  Analysis begun on:  Sat Nov 30 08:11:02 2019
  Analysis ended on:  Sat Nov 30 08:11:02 2019
  Total elapsed time: < 1 sec