
  EPA STORM WATER MANAGEMENT MODEL - VERSION 5.1 (Build 5.1.013)
  --------------------------------------------------------------

  WARNING 03: negative offset ignored for Link C-F107
  WARNING 03: negative offset ignored for Link WWGM0993
  WARNING 03: negative offset ignored for Link WWGM0998
  WARNING 03: negative offset ignored for Link WWGM1183
  WARNING 03: negative offset ignored for Link WWGM1770
  WARNING 03: negative offset ignored for Link WWGM1796
  WARNING 03: negative offset ignored for Link WWGM1798
  WARNING 03: negative offset ignored for Link WWGM2039
  WARNING 02: maximum depth increased for Node J-150_CREEKSD
  
  *********************************************************
  NOTE: The summary statistics displayed in this report are
  based on results found at every computational time step,  
  not just on results from each reporting time step.
  *********************************************************
  
  ****************
  Analysis Options
  ****************
  Flow Units ............... CFS
  Process Models:
    Rainfall/Runoff ........ NO
    RDII ................... YES
    Snowmelt ............... NO
    Groundwater ............ NO
    Flow Routing ........... YES
    Ponding Allowed ........ YES
    Water Quality .......... NO
  Infiltration Method ...... HORTON
  Flow Routing Method ...... DYNWAVE
  Surcharge Method ......... EXTRAN
  Starting Date ............ 02/07/2017 06:00:00
  Ending Date .............. 02/08/2017 06:00:00
  Antecedent Dry Days ...... 5.0
  Report Time Step ......... 00:00:30
  Wet Time Step ............ 00:00:30
  Dry Time Step ............ 01:00:00
  Routing Time Step ........ 5.00 sec
  Variable Time Step ....... YES
  Maximum Trials ........... 8
  Number of Threads ........ 8
  Head Tolerance ........... 0.001000 ft
  
  
  **************************        Volume         Depth
  Runoff Quantity Continuity     acre-feet        inches
  **************************     ---------       -------
  Total Precipitation ......         0.000         0.000
  Evaporation Loss .........         0.000         0.000
  Infiltration Loss ........         0.000         0.000
  Surface Runoff ...........         0.000         0.000
  Final Storage ............         0.000         0.000
  Continuity Error (%) .....         0.000
  
  
  **************************        Volume        Volume
  Flow Routing Continuity        acre-feet      10^6 gal
  **************************     ---------     ---------
  Dry Weather Inflow .......        12.497         4.072
  Wet Weather Inflow .......         0.000         0.000
  Groundwater Inflow .......         0.000         0.000
  RDII Inflow ..............         0.000         0.000
  External Inflow ..........         0.000         0.000
  External Outflow .........        12.189         3.972
  Flooding Loss ............         0.000         0.000
  Evaporation Loss .........         0.000         0.000
  Exfiltration Loss ........         0.000         0.000
  Initial Stored Volume ....         0.000         0.000
  Final Stored Volume ......         0.751         0.245
  Continuity Error (%) .....        -3.543
  
  
  *************************
  Highest Continuity Errors
  *************************
  Node J-210_SHER1 (100.00%)
  Node J-150_CREEKSD (25.12%)
  Node PROVIDENCEWW_F1 (11.03%)
  Node J-160_DAY (8.77%)
  Node J-170_FERN1 (3.48%)
  
  
  ***************************
  Time-Step Critical Elements
  ***************************
  Link WWGM2078 (25.45%)
  Link WWGM2073 (24.19%)
  Link WWGM2053 (19.93%)
  Link WWGM1792 (15.80%)
  
  
  ********************************
  Highest Flow Instability Indexes
  ********************************
  Link WWGM2073 (65)
  Link WWGM0177 (58)
  Link WWGM0354 (40)
  Link WWGM0191 (22)
  Link WWGM2053 (10)
  
  
  *************************
  Routing Time Step Summary
  *************************
  Minimum Time Step           :     0.38 sec
  Average Time Step           :     3.75 sec
  Maximum Time Step           :     5.00 sec
  Percent in Steady State     :     0.00
  Average Iterations per Step :     7.81
  Percent Not Converging      :    95.20
  
  
  ******************
  Node Depth Summary
  ******************
  
  ---------------------------------------------------------------------------------
                                 Average  Maximum  Maximum  Time of Max    Reported
                                   Depth    Depth      HGL   Occurrence   Max Depth
  Node                 Type         Feet     Feet     Feet  days hr:min        Feet
  ---------------------------------------------------------------------------------
  J-100                JUNCTION     0.00     0.00   164.00     0  00:00        0.00
  J-110                JUNCTION     0.00     0.00   159.72     0  00:00        0.00
  J-140_CHEHAL         JUNCTION    53.89   131.55   308.65     0  23:54      118.05
  J-150_CREEKSD        JUNCTION    16.20    18.97   179.57     0  14:39       18.84
  J-160_DAY            JUNCTION    46.80   506.50   613.50     0  09:40      160.08
  J-170_FERN1          JUNCTION    26.81    94.73   232.33     0  01:22       91.02
  J-190_HWY240_1       JUNCTION    44.88    76.75   219.75     0  15:53       69.46
  J-210_SHER1          JUNCTION     8.35    19.72   152.32     0  19:59       19.72
  J-230_CHEHAL_BASEFLOW JUNCTION     0.26     0.31   186.40     0  01:26        0.31
  J-240_CREEK_BASEFLOW JUNCTION     0.05     0.07   166.04     0  01:52        0.07
  J-250_SHER_BASEFLOW  JUNCTION     0.04     0.05   138.81     0  14:46        0.05
  J-260_CHAR_BASEFLOW  JUNCTION     0.09     0.13   147.05     0  04:00        0.13
  J-270_ANDR_BASEFLOW  JUNCTION     1.42     1.46   145.12     0  04:00        1.46
  J-280_HWY240_WEIR    JUNCTION     0.24     0.33   164.13     0  01:28        0.33
  J-F102               JUNCTION     0.26     0.31   154.59     0  01:34        0.31
  J-F103               JUNCTION     0.20     0.23   159.37     0  01:09        0.23
  J-F106_RIVERFRONT    JUNCTION    11.42    44.45   193.45     0  03:00       32.60
  J-F107_PROVIDENCE    JUNCTION    12.27    30.32   195.32     0  12:47       26.81
  J-F108_PROV_BASEFLOW JUNCTION     0.21     0.24   167.32     0  14:00        0.24
  J-F109               JUNCTION     0.15     0.21   141.82     0  04:00        0.21
  J-F110               JUNCTION     0.12     0.17   159.17     0  04:00        0.17
  J-F111               JUNCTION     0.16     0.23   162.23     0  04:00        0.23
  WWMF109000           JUNCTION     0.31     0.42   167.62     0  14:42        0.42
  WWMF109001           JUNCTION     0.20     0.27   168.03     0  14:42        0.27
  WWMF109002           JUNCTION     0.39     0.55   168.94     0  14:41        0.55
  WWMF109003           JUNCTION     0.45     0.62   169.64     0  14:41        0.62
  WWMF109004           JUNCTION     0.35     0.50   172.03     0  14:40        0.50
  WWMF109005           JUNCTION     0.27     0.36   173.97     0  01:12        0.36
  WWMF109006           JUNCTION     0.25     0.34   176.33     0  01:10        0.34
  WWMF109040           JUNCTION     0.00     0.00   174.77     0  00:00        0.00
  WWMF109150           JUNCTION     0.40     0.54   168.71     0  14:42        0.54
  WWMF109153           JUNCTION     0.38     0.51   167.06     0  14:44        0.51
  WWMF117018           JUNCTION     0.17     0.22   157.72     0  15:00        0.22
  WWMF117019           JUNCTION     0.08     0.11   158.70     0  15:00        0.11
  WWMF117020           JUNCTION     0.09     0.12   159.85     0  15:00        0.12
  WWMF117021           JUNCTION     0.04     0.06   160.72     0  15:00        0.06
  WWMF117022           JUNCTION     0.00     0.00   161.98     0  00:00        0.00
  WWMF117023           JUNCTION     0.00     0.00   163.58     0  00:00        0.00
  WWMF117024           JUNCTION     0.00     0.00   163.87     0  00:00        0.00
  WWMF117025           JUNCTION     0.40     0.56   164.97     0  01:28        0.56
  WWMF117026           JUNCTION     0.69     0.89   165.19     0  01:26        0.89
  WWMF117027           JUNCTION     0.38     0.53   165.64     0  01:24        0.53
  WWMF117028           JUNCTION     0.57     0.73   165.92     0  01:23        0.73
  WWMF118001           JUNCTION     0.37     0.53   165.92     0  01:23        0.53
  WWMF118002           JUNCTION     0.09     0.19   165.93     0  01:23        0.19
  WWMF118003           JUNCTION     0.07     0.09   170.53     0  01:54        0.09
  WWMF118023           JUNCTION     0.04     0.06   169.71     0  01:55        0.06
  WWMF118024           JUNCTION     0.04     0.06   167.59     0  01:56        0.06
  WWMF118025           JUNCTION     0.08     0.10   166.35     0  01:56        0.10
  WWMF118026           JUNCTION     0.39     0.53   166.28     0  14:44        0.53
  WWMF118048           JUNCTION     0.49     0.66   155.65     0  01:29        0.66
  WWMF118049           JUNCTION     0.20     0.27   162.44     0  01:28        0.27
  WWMF118050           JUNCTION     0.34     0.47   163.45     0  01:28        0.47
  WWMF127007           JUNCTION     0.17     0.24   148.81     0  15:00        0.24
  WWMF127008           JUNCTION     0.19     0.26   149.27     0  15:00        0.26
  WWMF127009           JUNCTION     0.18     0.25   149.67     0  15:00        0.25
  WWMF127010           JUNCTION     0.16     0.22   150.36     0  15:00        0.22
  WWMF127011           JUNCTION     0.15     0.22   151.12     0  15:00        0.22
  WWMF127012           JUNCTION     0.17     0.23   152.13     0  15:00        0.23
  WWMF127013           JUNCTION     0.13     0.17   152.39     0  15:00        0.17
  WWMF127014           JUNCTION     0.19     0.25   153.21     0  15:00        0.25
  WWMF127015           JUNCTION     0.18     0.24   153.62     0  15:00        0.24
  WWMF127016           JUNCTION     0.05     0.06   154.87     0  15:00        0.06
  WWMF127017           JUNCTION     0.11     0.15   156.32     0  15:00        0.15
  WWMF127044           JUNCTION     0.04     0.06   157.22     0  15:00        0.06
  WWMF127115           JUNCTION     0.07     0.10   167.60     0  04:00        0.10
  WWMF127116           JUNCTION     0.11     0.16   168.39     0  04:00        0.16
  WWMF127117           JUNCTION     0.14     0.19   168.82     0  04:00        0.19
  WWMF127118           JUNCTION     0.10     0.13   169.09     0  03:19        0.13
  WWMF127119           JUNCTION     0.08     0.11   170.51     0  04:00        0.11
  WWMF127203           JUNCTION     0.12     0.16   169.82     0  04:00        0.16
  WWMF127220           JUNCTION     0.10     0.14   170.48     0  04:00        0.14
  WWMF137001           JUNCTION     0.07     0.09   126.05     0  15:00        0.09
  WWMF137002           JUNCTION     0.08     0.11   133.00     0  15:00        0.11
  WWMF137003           JUNCTION     0.09     0.12   145.06     0  15:00        0.12
  WWMF137004           JUNCTION     0.14     0.19   147.19     0  15:02        0.19
  WWMF137005           JUNCTION     0.29     0.39   147.71     0  15:02        0.39
  WWMF137006           JUNCTION     0.17     0.24   148.30     0  15:00        0.24
  WWMF137072           JUNCTION     0.08     0.10   109.86     0  15:00        0.10
  WWMF79028            JUNCTION     0.15     0.20   216.52     0  01:00        0.20
  WWMF79029            JUNCTION     0.17     0.21   216.96     0  01:00        0.21
  WWMF79030            JUNCTION     0.07     0.09   217.46     0  01:00        0.09
  WWMF79031            JUNCTION     0.10     0.13   218.20     0  01:00        0.13
  WWMF89019            JUNCTION     0.18     0.23   199.39     0  01:00        0.23
  WWMF89020            JUNCTION     0.09     0.12   200.30     0  01:00        0.12
  WWMF89021            JUNCTION     0.16     0.21   201.43     0  01:00        0.21
  WWMF89022            JUNCTION     0.28     0.36   201.96     0  01:00        0.36
  WWMF89023            JUNCTION     0.13     0.17   205.46     0  01:00        0.17
  WWMF89024            JUNCTION     0.12     0.15   208.34     0  01:00        0.15
  WWMF89025            JUNCTION     0.09     0.12   212.57     0  01:00        0.12
  WWMF89026            JUNCTION     0.08     0.11   213.85     0  01:00        0.11
  WWMF89027            JUNCTION     0.11     0.14   215.35     0  01:00        0.14
  WWMF89160            JUNCTION     0.14     0.19   204.46     0  01:00        0.19
  WWMF99007            JUNCTION     0.31     0.43   178.30     0  01:10        0.43
  WWMF99008            JUNCTION     0.27     0.36   178.67     0  01:08        0.36
  WWMF99009            JUNCTION     0.26     0.35   179.61     0  01:07        0.35
  WWMF99011            JUNCTION     0.26     0.34   180.68     0  01:06        0.34
  WWMF99012            JUNCTION     0.26     0.34   180.92     0  01:04        0.34
  WWMF99013            JUNCTION     0.14     0.18   186.26     0  01:02        0.18
  WWMF99014            JUNCTION     0.17     0.22   188.54     0  01:02        0.22
  WWMF99015            JUNCTION     0.18     0.24   189.48     0  01:01        0.24
  WWMF99016            JUNCTION     0.16     0.21   190.72     0  01:00        0.21
  WWMF99017            JUNCTION     0.15     0.20   191.45     0  01:00        0.20
  WWMF99018            JUNCTION     0.15     0.19   193.13     0  01:00        0.19
  WWMF99152            JUNCTION     0.16     0.21   195.78     0  01:00        0.21
  WWMG108005           JUNCTION     0.04     0.06   177.14     0  01:51        0.06
  WWMG108006           JUNCTION     0.07     0.09   178.52     0  01:50        0.09
  WWMG108007           JUNCTION     0.12     0.16   178.76     0  00:37        0.16
  WWMG108008           JUNCTION     0.18     0.21   179.96     0  01:27        0.21
  WWMG108009           JUNCTION     0.32     0.39   181.19     0  01:57        0.39
  WWMG108010           JUNCTION     0.28     0.34   181.77     0  01:03        0.34
  WWMG108011           JUNCTION     0.43     0.50   182.03     0  01:01        0.50
  WWMG108080           JUNCTION     0.51     0.66   179.25     0  01:26        0.66
  WWMG109046           JUNCTION     0.47     0.63   179.94     0  01:24        0.63
  WWMG109047           JUNCTION     0.45     0.60   180.94     0  01:23        0.60
  WWMG109048           JUNCTION     0.43     0.60   181.72     0  01:21        0.60
  WWMG109049           JUNCTION     0.35     0.51   182.53     0  01:18        0.51
  WWMG109050           JUNCTION     0.23     0.33   186.33     0  01:18        0.33
  WWMG109051           JUNCTION     0.25     0.37   189.34     0  01:17        0.37
  WWMG114000           JUNCTION     0.39     0.49   136.00     0  03:08        0.49
  WWMG114001           JUNCTION     0.40     0.59   137.81     0  03:00        0.59
  WWMG114002           JUNCTION     0.38     0.54   138.82     0  02:38        0.54
  WWMG116235           JUNCTION     0.71     1.09   173.64     0  02:01        1.09
  WWMG116236           JUNCTION     0.78     1.17   174.44     0  02:00        1.17
  WWMG116237           JUNCTION     0.77     1.15   175.14     0  01:27        1.15
  WWMG116238           JUNCTION     0.65     1.00   175.79     0  01:26        1.00
  WWMG116239           JUNCTION     0.73     1.09   176.20     0  01:26        1.09
  WWMG116240           JUNCTION     0.67     1.02   177.28     0  01:25        1.02
  WWMG116241           JUNCTION     0.55     0.83   177.39     0  01:25        0.83
  WWMG117195           JUNCTION     0.85     1.27   178.13     0  01:25        1.26
  WWMG118004           JUNCTION     0.04     0.06   174.41     0  01:53        0.06
  WWMG118086           JUNCTION     0.52     0.69   178.70     0  01:31        0.69
  WWMG118104           JUNCTION     0.07     0.39   185.03     0  17:31        0.37
  WWMG123072           JUNCTION     0.54     0.68   121.69     0  03:17        0.68
  WWMG123073           JUNCTION     0.52     0.65   122.93     0  03:14        0.65
  WWMG123074           JUNCTION     0.62     0.77   123.51     0  03:13        0.77
  WWMG123075           JUNCTION     0.36     0.44   125.56     0  03:11        0.44
  WWMG123076           JUNCTION     0.52     0.65   126.01     0  03:10        0.65
  WWMG123077           JUNCTION     0.49     0.61   126.50     0  03:10        0.61
  WWMG123078           JUNCTION     0.27     0.34   133.05     0  03:09        0.34
  WWMG123079           JUNCTION     0.37     0.45   135.46     0  03:09        0.45
  WWMG126098           JUNCTION     0.06     0.08   163.62     0  02:49        0.08
  WWMG126102           JUNCTION     0.03     0.05   164.45     0  03:00        0.05
  WWMG126147           JUNCTION     0.00     0.00   174.04     0  00:00        0.00
  WWMG126164           JUNCTION     0.01     0.02   180.02     0  02:32        0.02
  WWMG126200           JUNCTION     0.15     0.20   165.07     0  04:00        0.20
  WWMG126236           JUNCTION     0.64     0.95   159.53     0  02:07        0.95
  WWMG126237           JUNCTION     0.63     0.92   162.35     0  02:06        0.92
  WWMG126238           JUNCTION     0.61     0.90   163.18     0  02:05        0.90
  WWMG126239           JUNCTION     0.61     0.89   164.83     0  02:04        0.89
  WWMG126240           JUNCTION     0.44     0.64   166.30     0  02:03        0.64
  WWMG126241           JUNCTION     0.53     0.77   168.99     0  02:03        0.77
  WWMG126242           JUNCTION     0.45     0.65   172.29     0  02:02        0.65
  WWMG126243           JUNCTION     0.93     1.32   173.15     0  02:02        1.32
  WWMG127109           JUNCTION     0.14     0.20   164.03     0  04:00        0.20
  WWMG127110           JUNCTION     0.15     0.21   164.47     0  03:42        0.21
  WWMG127114           JUNCTION     0.09     0.13   165.82     0  04:00        0.13
  WWMG127133           JUNCTION     0.05     0.07   168.70     0  03:35        0.07
  WWMG127188           JUNCTION     0.12     0.16   163.91     0  03:00        0.16
  WWMG127195           JUNCTION     0.64     0.94   167.30     0  02:03        0.94
  WWMG136015           JUNCTION     0.64     0.97   154.65     0  02:11        0.97
  WWMG136016           JUNCTION     0.62     0.97   155.98     0  02:10        0.96
  WWMG136017           JUNCTION     0.86     1.24   157.06     0  02:10        1.24
  WWMG136018           JUNCTION     0.78     1.17   157.56     0  02:09        1.17
  WWMG136019           JUNCTION     0.93     1.33   158.16     0  02:08        1.33
  WWMG136020           JUNCTION     0.55     0.81   156.05     0  02:11        0.81
  WWMG136021           JUNCTION     0.03     0.04   158.72     0  03:00        0.04
  WWMG136035           JUNCTION     0.17     0.24   157.69     0  04:00        0.24
  WWMG136036           JUNCTION     0.16     0.20   158.66     0  04:00        0.20
  WWMG136037           JUNCTION     0.16     0.22   159.50     0  04:00        0.22
  WWMG136038           JUNCTION     0.12     0.18   160.24     0  04:00        0.18
  WWMG136039           JUNCTION     0.11     0.16   161.38     0  04:03        0.16
  WWMG136050           JUNCTION     0.12     0.17   155.86     0  03:00        0.17
  WWMG136051           JUNCTION     0.09     0.13   156.38     0  03:00        0.13
  WWMG136053           JUNCTION     0.09     0.13   157.87     0  03:00        0.13
  WWMG136054           JUNCTION     0.17     0.20   159.05     0  03:00        0.20
  WWMG136064           JUNCTION     0.07     0.10   160.07     0  03:00        0.10
  WWMG136065           JUNCTION     0.11     0.15   160.54     0  03:00        0.15
  WWMG136066           JUNCTION     0.07     0.11   160.90     0  03:00        0.11
  WWMG136067           JUNCTION     0.06     0.09   161.54     0  03:00        0.09
  WWMG136068           JUNCTION     0.07     0.09   162.10     0  03:00        0.09
  WWMG136069           JUNCTION     0.09     0.12   162.15     0  03:03        0.12
  WWMG136070           JUNCTION     0.08     0.11   162.71     0  03:02        0.11
  WWMG136074           JUNCTION     0.06     0.08   164.39     0  03:00        0.08
  WWMG136095           JUNCTION     0.13     0.18   162.71     0  04:00        0.18
  WWMG136097           JUNCTION     0.05     0.08   160.58     0  03:00        0.08
  WWMG136100           JUNCTION     0.00     0.00   163.12     0  00:00        0.00
  WWMG136254           JUNCTION     0.06     0.09   159.79     0  03:00        0.09
  WWMG136260           JUNCTION     0.87     1.25   158.25     0  02:08        1.25
  WWMG137106           JUNCTION     0.14     0.20   162.09     0  04:01        0.20
  WWMG137107           JUNCTION     0.17     0.24   163.23     0  04:00        0.24
  WWMG137183           JUNCTION     0.12     0.17   163.29     0  04:00        0.17
  WWMG137193           JUNCTION     0.08     0.12   157.19     0  03:00        0.12
  WWMG137194           JUNCTION     0.19     0.26   158.29     0  04:00        0.26
  WWMG137195           JUNCTION     0.21     0.28   158.76     0  04:00        0.28
  WWMG146012           JUNCTION     0.31     0.48   152.56     0  03:51        0.48
  WWMG146013           JUNCTION     0.13     0.19   152.73     0  03:50        0.19
  WWMG146014           JUNCTION     0.77     1.12   153.70     0  02:12        1.12
  WWMG146025           JUNCTION     0.24     0.38   155.42     0  03:49        0.38
  WWMG146030           JUNCTION     0.29     0.47   157.47     0  03:49        0.47
  WWMG146075           JUNCTION     1.02     1.38   153.21     0  02:13        1.38
  WWMG146076           JUNCTION     0.79     1.10   152.23     0  02:14        1.10
  WWMG146077           JUNCTION     0.79     1.09   151.45     0  02:16        1.09
  WWMG146078           JUNCTION     0.04     0.06   154.80     0  03:00        0.06
  WWMG146079           JUNCTION     0.65     0.93   150.63     0  02:17        0.93
  WWMG79032            JUNCTION     0.15     0.20   218.41     0  01:00        0.20
  WWMG79033            JUNCTION     0.06     0.07   222.90     0  01:00        0.07
  WWMG79034            JUNCTION     0.06     0.08   224.77     0  00:59        0.08
  WWMG79195            JUNCTION     0.05     0.10   240.28     0  01:00        0.10
  WWMG79196            JUNCTION     0.08     0.16   240.74     0  00:56        0.16
  WWMG79244            JUNCTION     0.07     0.14   241.51     0  00:48        0.14
  WWMG79245            JUNCTION     0.08     0.15   242.24     0  00:57        0.15
  WWMG79246            JUNCTION     0.09     0.17   242.62     0  00:33        0.17
  WWMG89076            JUNCTION     0.05     0.06   218.89     0  01:20        0.06
  WWMG89185            JUNCTION     0.09     0.17   220.21     0  01:00        0.17
  WWMG89186            JUNCTION     0.14     0.27   220.77     0  01:00        0.27
  WWMG89187            JUNCTION     0.19     0.35   221.42     0  01:00        0.35
  WWMG89189            JUNCTION     0.14     0.27   222.47     0  01:00        0.27
  WWMG89192            JUNCTION     0.12     0.23   226.25     0  01:00        0.23
  WWMG89193            JUNCTION     0.10     0.19   228.21     0  01:00        0.19
  WWMG89194            JUNCTION     0.07     0.13   234.65     0  01:00        0.13
  WWMG89250            JUNCTION     0.05     0.39   220.79     0  01:10        0.39
  WWMG89258            JUNCTION     0.21     0.41   214.99     0  01:11        0.41
  WWMG89259            JUNCTION     0.20     0.41   216.78     0  00:49        0.41
  WWMG89260            JUNCTION     0.25     0.60   217.61     0  12:21        0.59
  WWMG89261            JUNCTION     0.13     0.24   218.21     0  01:00        0.24
  WWMG99099            JUNCTION     0.25     0.37   192.14     0  01:16        0.37
  WWMG99100            JUNCTION     0.21     0.31   197.46     0  01:15        0.31
  WWMG99101            JUNCTION     0.20     0.30   204.99     0  01:15        0.30
  WWMG99102            JUNCTION     0.24     0.36   208.86     0  01:14        0.36
  WWMG99104            JUNCTION     0.28     0.43   210.82     0  01:13        0.43
  WWMG99105            JUNCTION     0.21     0.39   212.95     0  01:12        0.39
  WWMH104008           JUNCTION     0.28     0.40   147.26     0  03:00        0.40
  WWMH104009           JUNCTION     0.28     0.40   148.69     0  03:00        0.40
  WWMH104010           JUNCTION     0.20     0.28   150.56     0  03:00        0.28
  WWMH104011           JUNCTION     0.41     0.59   151.36     0  03:00        0.59
  WWMH104012           JUNCTION     0.29     0.41   152.31     0  03:00        0.41
  WWMH104040           JUNCTION     0.11     0.12   209.96     0  04:00        0.12
  WWMH104041           JUNCTION     0.22     0.24   210.36     0  04:00        0.24
  WWMH104042           JUNCTION     0.15     0.16   211.53     0  04:00        0.16
  WWMH104043           JUNCTION     0.14     0.15   213.36     0  04:00        0.15
  WWMH104044           JUNCTION     0.12     0.13   214.99     0  04:00        0.13
  WWMH105001           JUNCTION     0.22     0.31   153.19     0  03:00        0.31
  WWMH105002           JUNCTION     0.24     0.34   155.76     0  03:00        0.34
  WWMH105003           JUNCTION     0.24     0.33   158.02     0  03:00        0.33
  WWMH105004           JUNCTION     0.23     0.33   160.33     0  03:00        0.33
  WWMH105005           JUNCTION     0.24     0.34   162.37     0  03:00        0.34
  WWMH105017           JUNCTION     0.25     0.35   163.66     0  02:59        0.35
  WWMH114003           JUNCTION     0.26     0.36   140.44     0  03:00        0.36
  WWMH114004           JUNCTION     0.40     0.60   141.40     0  03:00        0.60
  WWMH114005           JUNCTION     0.37     0.54   142.12     0  03:01        0.54
  WWMH114006           JUNCTION     0.28     0.39   143.67     0  03:00        0.39
  WWMH114007           JUNCTION     0.28     0.40   145.72     0  03:00        0.40
  WWMH114026           JUNCTION     0.25     0.28   146.09     0  04:00        0.28
  WWMH114027           JUNCTION     0.23     0.25   153.91     0  04:00        0.25
  WWMH114028           JUNCTION     0.22     0.25   175.10     0  04:00        0.25
  WWMH114029           JUNCTION     0.41     0.47   177.31     0  04:00        0.47
  WWMH114030           JUNCTION     0.38     0.43   178.26     0  04:00        0.43
  WWMH114031           JUNCTION     0.41     0.48   180.63     0  04:00        0.48
  WWMH114033           JUNCTION     0.12     0.13   190.97     0  04:00        0.13
  WWMH114035           JUNCTION     0.18     0.20   192.73     0  04:00        0.20
  WWMH114036           JUNCTION     0.18     0.20   193.30     0  04:00        0.20
  WWMH114037           JUNCTION     0.20     0.22   194.55     0  04:00        0.22
  WWMH114038           JUNCTION     0.11     0.12   201.92     0  04:00        0.12
  WWMH114039           JUNCTION     0.11     0.13   208.23     0  04:00        0.13
  WWMH114127           JUNCTION     0.26     0.29   142.59     0  04:00        0.29
  WWMH114140           JUNCTION     0.50     0.73   139.94     0  03:00        0.73
  WWMH123003           JUNCTION     0.09     0.12   157.44     0  06:00        0.12
  WWMH123004           JUNCTION     0.20     0.26   160.31     0  06:00        0.26
  WWMH123005           JUNCTION     0.20     0.26   163.29     0  06:00        0.26
  WWMH123006           JUNCTION     0.22     0.29   164.87     0  05:59        0.29
  WWMH123007           JUNCTION     0.18     0.24   167.31     0  05:51        0.24
  WWMH123068           JUNCTION     0.56     0.71   118.83     0  03:20        0.71
  WWMH123069           JUNCTION     0.54     0.68   119.38     0  03:18        0.68
  WWMH123070           JUNCTION     0.62     0.77   119.91     0  03:18        0.77
  WWMH123071           JUNCTION     0.50     0.63   120.52     0  03:17        0.63
  WWMH126133           JUNCTION     0.03     0.05   161.57     0  03:00        0.05
  WWMH131073           JUNCTION     0.75     0.95   103.90     0  03:33        0.95
  WWMH131074           JUNCTION     0.62     0.80   104.67     0  03:31        0.80
  WWMH131075           JUNCTION     0.57     0.73   106.81     0  03:31        0.73
  WWMH131080           JUNCTION     0.59     0.75   108.15     0  03:27        0.75
  WWMH131081           JUNCTION     0.55     0.69   108.95     0  03:27        0.69
  WWMH131082           JUNCTION     0.58     0.73   110.79     0  03:26        0.73
  WWMH131083           JUNCTION     0.58     0.74   112.46     0  03:25        0.74
  WWMH133000           JUNCTION     0.34     0.47   115.63     0  03:23        0.47
  WWMH133001           JUNCTION     0.17     0.22   117.21     0  06:00        0.22
  WWMH133002           JUNCTION     0.22     0.29   118.05     0  06:00        0.29
  WWMH133066           JUNCTION     0.51     0.65   116.92     0  03:22        0.65
  WWMH133067           JUNCTION     0.56     0.71   117.75     0  03:21        0.71
  WWMH133096           JUNCTION     0.27     0.33   114.87     0  03:23        0.33
  WWMH136135           JUNCTION     0.09     0.13   158.96     0  03:00        0.13
  WWMH136204           JUNCTION     0.10     0.14   159.93     0  03:00        0.14
  WWMH136247           JUNCTION     0.09     0.14   155.71     0  03:00        0.14
  WWMH136248           JUNCTION     0.13     0.19   156.61     0  03:00        0.19
  WWMH136249           JUNCTION     0.13     0.18   157.19     0  03:00        0.18
  WWMH136250           JUNCTION     0.08     0.11   157.92     0  03:00        0.11
  WWMH136253           JUNCTION     0.08     0.12   159.57     0  03:00        0.12
  WWMH136262           JUNCTION     0.05     0.07   161.55     0  03:00        0.07
  WWMH141000           JUNCTION     0.75     0.97    92.21     0  02:32        0.97
  WWMH141001           JUNCTION     0.38     0.47    95.87     0  14:33        0.47
  WWMH141002           JUNCTION     0.70     0.86    97.00     0  14:32        0.86
  WWMH141003           JUNCTION     0.61     0.76    97.29     0  14:31        0.76
  WWMH141004           JUNCTION     0.70     0.86    97.92     0  14:31        0.86
  WWMH141005           JUNCTION     0.62     0.77    98.49     0  14:29        0.77
  WWMH141006           JUNCTION     0.16     0.23   120.05     0  14:51        0.23
  WWMH141007           JUNCTION     0.15     0.21   149.40     0  14:51        0.21
  WWMH141071           JUNCTION     0.42     0.52   102.16     0  03:34        0.52
  WWMH141072           JUNCTION     0.48     0.61   103.34     0  03:33        0.61
  WWMH146000           JUNCTION     0.51     0.79    93.33     0  02:29        0.79
  WWMH146001           JUNCTION     0.25     0.34   142.35     0  02:29        0.34
  WWMH146002           JUNCTION     0.74     1.05   144.50     0  02:28        1.05
  WWMH146003           JUNCTION     0.79     1.11   145.38     0  02:27        1.11
  WWMH146004           JUNCTION     0.69     0.97   146.35     0  02:25        0.97
  WWMH146005           JUNCTION     0.82     1.14   147.03     0  02:24        1.14
  WWMH146006           JUNCTION     0.71     1.00   147.57     0  02:23        1.00
  WWMH146007           JUNCTION     0.66     0.93   148.64     0  02:22        0.93
  WWMH146008           JUNCTION     0.70     0.99   149.64     0  02:21        0.99
  WWMH146246           JUNCTION     0.04     0.07   154.00     0  03:00        0.07
  WWMH146247           JUNCTION     0.99     1.37   150.26     0  02:19        1.37
  WWMH95018            JUNCTION     0.26     0.37   165.47     0  03:00        0.37
  WWMH95019            JUNCTION     0.19     0.26   166.72     0  02:59        0.26
  WWMH95020            JUNCTION     0.18     0.25   170.19     0  02:55        0.25
  WWMH95021            JUNCTION     0.11     0.15   187.36     0  02:59        0.15
  WWMH95022            JUNCTION     0.18     0.24   190.31     0  02:58        0.24
  WWMH95023            JUNCTION     0.22     0.30   192.15     0  02:54        0.30
  WWMH95024            JUNCTION     0.20     0.28   193.13     0  02:37        0.28
  WWMI102001           JUNCTION     0.28     0.32   197.84     0  14:00        0.32
  WWMI102002           JUNCTION     0.28     0.31   198.93     0  14:00        0.31
  WWMI102003           JUNCTION     0.28     0.31   200.21     0  14:00        0.31
  WWMI102066           JUNCTION     0.19     0.21   203.44     0  14:00        0.21
  WWMI102067           JUNCTION     0.19     0.22   208.35     0  14:00        0.22
  WWMI102068           JUNCTION     0.19     0.21   213.09     0  14:00        0.21
  WWMI102069           JUNCTION     0.33     0.37   214.09     0  14:00        0.37
  WWMI102070           JUNCTION     0.26     0.29   214.50     0  14:00        0.29
  WWMI102071           JUNCTION     0.30     0.33   214.73     0  14:00        0.33
  WWMI102072           JUNCTION     0.24     0.26   216.90     0  14:00        0.26
  WWMI102073           JUNCTION     0.20     0.22   218.43     0  14:00        0.22
  WWMI102131           JUNCTION     0.24     0.27   219.55     0  14:00        0.27
  WWMI102132           JUNCTION     0.22     0.25   221.13     0  14:00        0.25
  WWMI104050           JUNCTION     0.29     0.32   222.64     0  14:00        0.32
  WWMI104051           JUNCTION     0.16     0.18   222.24     0  14:00        0.18
  WWMI111032           JUNCTION     0.39     0.44   179.71     0  14:01        0.44
  WWMI111035           JUNCTION     0.39     0.44   181.83     0  14:00        0.44
  WWMI111036           JUNCTION     0.34     0.38   183.16     0  14:00        0.38
  WWMI111037           JUNCTION     0.16     0.17   189.60     0  14:00        0.17
  WWMI111040           JUNCTION     0.39     0.44   180.98     0  14:00        0.44
  WWMI111053           JUNCTION     0.22     0.24   193.59     0  14:00        0.24
  WWMI111099           JUNCTION     0.34     0.39   196.34     0  14:00        0.39
  WWMI112000           JUNCTION     0.18     0.20   196.72     0  14:00        0.20
  WWMI121026           JUNCTION     0.55     0.86   171.91     0  14:12        0.86
  WWMI121027           JUNCTION     0.48     0.75   172.92     0  14:02        0.75
  WWMI121028           JUNCTION     0.36     0.53   173.19     0  14:03        0.53
  WWMI121029           JUNCTION     0.32     0.37   175.16     0  13:58        0.37
  WWMI121030           JUNCTION     0.32     0.36   177.25     0  14:00        0.36
  WWMI121031           JUNCTION     0.39     0.44   178.45     0  14:00        0.44
  WWMI121100           JUNCTION     0.40     0.45   177.50     0  14:00        0.45
  WWMI121103           JUNCTION     0.57     0.84   173.20     0  14:02        0.84
  WWMI131009           JUNCTION     0.44     0.64   152.89     0  14:49        0.64
  WWMI131010           JUNCTION     0.52     0.76   154.28     0  14:48        0.76
  WWMI131011           JUNCTION     0.46     0.68   155.36     0  14:46        0.68
  WWMI131012           JUNCTION     0.53     0.74   155.71     0  14:45        0.74
  WWMI131013           JUNCTION     0.46     0.67   156.99     0  14:45        0.67
  WWMI131014           JUNCTION     0.67     0.96   157.41     0  14:44        0.96
  WWMI131017           JUNCTION     0.54     0.80   158.35     0  14:43        0.80
  WWMI131018           JUNCTION     0.35     0.51   159.24     0  14:42        0.51
  WWMI131019           JUNCTION     0.50     0.75   161.38     0  14:42        0.75
  WWMI131020           JUNCTION     0.52     0.80   162.73     0  14:18        0.80
  WWMI131021           JUNCTION     0.47     0.73   164.47     0  14:16        0.73
  WWMI131022           JUNCTION     0.48     0.75   166.18     0  14:15        0.75
  WWMI131023           JUNCTION     0.67     1.04   167.75     0  14:14        1.04
  WWMI131024           JUNCTION     0.48     0.74   168.87     0  14:13        0.74
  WWMI131025           JUNCTION     0.49     0.76   170.31     0  14:12        0.76
  WWMI131111           JUNCTION     0.51     0.77   161.67     0  14:41        0.77
  WWMI141008           JUNCTION     0.51     0.73   151.27     0  14:51        0.73
  WWMI81               JUNCTION     0.00     0.00   268.14     0  00:00        0.00
  WWMI92143            JUNCTION     0.00     0.00   257.49     0  00:00        0.00
  WWMI92144            JUNCTION     0.00     0.00   256.47     0  00:00        0.00
  WWMI92146            JUNCTION     0.00     0.00   254.54     0  00:00        0.00
  WWMI92147            JUNCTION     0.08     0.09   243.56     0  14:02        0.09
  WWMI92148            JUNCTION     0.06     0.06   241.58     0  14:02        0.06
  WWMI92149            JUNCTION     0.11     0.13   237.10     0  14:00        0.13
  WWMI92150            JUNCTION     0.10     0.11   229.86     0  14:00        0.11
  WWMI92151            JUNCTION     0.24     0.26   226.01     0  14:00        0.26
  WWMI92152            JUNCTION     0.20     0.22   224.18     0  14:00        0.22
  WWMI92156            JUNCTION     0.08     0.09   244.74     0  14:00        0.09
  WWMI92157            JUNCTION     0.11     0.12   245.69     0  14:00        0.12
  WWMI92158            JUNCTION     0.09     0.11   247.22     0  14:00        0.11
  WWMI92159            JUNCTION     0.10     0.11   248.21     0  14:00        0.11
  WWMI92161            JUNCTION     0.10     0.11   249.69     0  14:00        0.11
  WWMJ102130           JUNCTION     0.05     0.06   171.67     0  05:45        0.06
  WWMJ102131           JUNCTION     0.15     0.22   170.30     0  04:25        0.22
  WWMJ111043           JUNCTION     0.03     0.06   184.39     0  01:59        0.06
  WWMJ111047           JUNCTION     0.13     0.28   177.01     0  02:00        0.28
  WWMJ111056           JUNCTION     0.02     0.05   191.81     0  01:40        0.05
  WWMJ111061           JUNCTION     0.17     0.25   168.79     0  05:20        0.25
  WWMJ111062           JUNCTION     0.14     0.21   167.56     0  05:23        0.21
  WWMJ111063           JUNCTION     0.13     0.19   165.55     0  05:25        0.19
  WWMJ111064           JUNCTION     0.13     0.20   162.96     0  05:30        0.20
  WWMJ111094           JUNCTION     0.11     0.23   178.18     0  01:59        0.23
  WWMJ111103           JUNCTION     0.68     0.76   177.34     0  01:59        0.76
  WWMJ120001           JUNCTION     0.17     0.33   163.96     0  01:51        0.33
  WWMJ120009           JUNCTION     0.18     0.39   163.61     0  02:00        0.39
  WWMJ120010           JUNCTION     0.06     0.12   153.19     0  02:01        0.12
  WWMJ120012           JUNCTION     0.25     0.51   160.75     0  02:00        0.51
  WWMJ120013           JUNCTION     0.17     0.36   161.71     0  02:00        0.36
  WWMJ120014           JUNCTION     0.16     0.35   162.45     0  02:00        0.35
  WWMJ120015           JUNCTION     0.00     0.00   164.04     0  00:00        0.00
  WWMJ120016           JUNCTION     0.11     0.21   124.63     0  02:00        0.21
  WWMJ120017           JUNCTION     0.10     0.20   122.57     0  02:00        0.20
  WWMJ120018           JUNCTION     0.00     0.00   135.90     0  00:00        0.00
  WWMJ120021           JUNCTION     0.10     0.20   166.36     0  02:00        0.20
  WWMJ120022           JUNCTION     0.11     0.22   168.82     0  02:00        0.22
  WWMJ120023           JUNCTION     0.04     0.08   172.63     0  02:00        0.08
  WWMJ120024           JUNCTION     0.03     0.06   177.07     0  02:00        0.06
  WWMJ120025           JUNCTION     0.10     0.21   175.06     0  02:00        0.21
  WWMJ120026           JUNCTION     0.21     0.45   174.86     0  02:00        0.45
  WWMJ120027           JUNCTION     0.12     0.26   176.40     0  02:00        0.26
  WWMJ120032           JUNCTION     0.13     0.29   173.18     0  02:00        0.29
  WWMJ120033           JUNCTION     0.09     0.19   171.77     0  02:00        0.19
  WWMJ120034           JUNCTION     0.13     0.30   125.15     0  01:00        0.30
  WWMJ120035           JUNCTION     0.12     0.30   126.61     0  01:00        0.30
  WWMJ120036           JUNCTION     0.14     0.34   127.80     0  01:00        0.34
  WWMJ120037           JUNCTION     0.07     0.16   132.57     0  01:00        0.16
  WWMJ120038           JUNCTION     0.10     0.25   139.70     0  01:00        0.25
  WWMJ120039           JUNCTION     0.10     0.25   141.49     0  01:00        0.25
  WWMJ120040           JUNCTION     0.09     0.21   143.69     0  01:00        0.21
  WWMJ120041           JUNCTION     0.09     0.21   146.23     0  01:00        0.21
  WWMJ120042           JUNCTION     0.09     0.21   153.55     0  01:00        0.21
  WWMJ120043           JUNCTION     0.11     0.23   167.37     0  02:00        0.23
  WWMJ120044           JUNCTION     0.13     0.20   160.70     0  05:34        0.20
  WWMJ120045           JUNCTION     0.06     0.10   157.85     0  05:34        0.10
  WWMJ120046           JUNCTION     0.25     0.38   120.51     0  05:37        0.38
  WWMJ120047           JUNCTION     0.13     0.19   119.99     0  05:40        0.19
  WWMJ120048           JUNCTION     0.10     0.21   159.54     0  02:01        0.21
  WWMJ120060           JUNCTION     0.10     0.24   136.96     0  01:00        0.24
  WWMK120007           JUNCTION     0.06     0.15   154.70     0  01:00        0.15
  WWMK120008           JUNCTION     0.21     0.37   154.91     0  01:00        0.37
  WWMK120009           JUNCTION     0.06     0.14   157.08     0  00:53        0.14
  OF-3                 OUTFALL      0.73     0.96    91.56     0  02:32        0.96
  F109157              STORAGE      3.05     4.42   165.02     0  01:17        4.42
  F118029              STORAGE      3.51     4.58   137.18     0  13:15        4.58
  F137204              STORAGE      3.33     5.01   106.91     0  15:28        5.00
  F89189               STORAGE      5.72     8.52   185.62     0  01:46        8.51
  HWY240LS             STORAGE      5.68     7.58   150.58     0  14:55        7.56
  J120019              STORAGE      3.89     6.04   119.64     0  13:58        6.02
  PROVIDENCEWW_F1      STORAGE      4.38     6.50   166.50     0  04:14        6.50
  RIVERFRONTWW_F2      STORAGE      4.19     6.55   137.40     0  03:28        6.53
  
  
  *******************
  Node Inflow Summary
  *******************
  
  -------------------------------------------------------------------------------------------------
                                  Maximum  Maximum                  Lateral       Total        Flow
                                  Lateral    Total  Time of Max      Inflow      Inflow     Balance
                                   Inflow   Inflow   Occurrence      Volume      Volume       Error
  Node                 Type           CFS      CFS  days hr:min    10^6 gal    10^6 gal     Percent
  -------------------------------------------------------------------------------------------------
  J-100                JUNCTION      0.00     0.00     0  00:00           0           0       0.000 gal
  J-110                JUNCTION      0.00     0.00     0  00:00           0           0       0.000 gal
  J-140_CHEHAL         JUNCTION      0.00     1.47     0  00:23           0       0.152       1.874
  J-150_CREEKSD        JUNCTION      0.00     0.42     0  01:17           0     0.00663      33.552
  J-160_DAY            JUNCTION      0.00     2.90     0  01:39           0       0.114       9.615
  J-170_FERN1          JUNCTION      0.00     1.81     0  00:26           0        0.28       3.608
  J-190_HWY240_1       JUNCTION      0.00     2.02     0  00:30           0       0.604       1.001
  J-210_SHER1          JUNCTION      0.00     0.86     0  06:34           0     0.00185    1853.707 gal
  J-230_CHEHAL_BASEFLOW JUNCTION      0.33     0.33     0  01:00       0.153       0.153       0.029
  J-240_CREEK_BASEFLOW JUNCTION      0.02     0.02     0  01:00     0.00727     0.00727       0.085
  J-250_SHER_BASEFLOW  JUNCTION      0.01     0.01     0  14:00     0.00274     0.00274       0.106
  J-260_CHAR_BASEFLOW  JUNCTION      0.07     0.07     0  03:00      0.0233      0.0233       0.265
  J-270_ANDR_BASEFLOW  JUNCTION      0.07     0.07     0  03:00      0.0214      0.0214       0.891
  J-280_HWY240_WEIR    JUNCTION      0.00     1.07     0  01:28           0       0.387       0.018
  J-F102               JUNCTION      0.10     0.28     0  01:21       0.046       0.126       0.874
  J-F103               JUNCTION      0.18     0.18     0  01:00      0.0813      0.0813       1.856
  J-F106_RIVERFRONT    JUNCTION      0.00     0.95     0  00:43           0       0.171      -0.339
  J-F107_PROVIDENCE    JUNCTION      0.00     0.28     0  04:24           0      0.0965       0.385
  J-F108_PROV_BASEFLOW JUNCTION      0.21     0.21     0  13:00        0.11        0.11       0.614
  J-F109               JUNCTION      0.00     0.14     0  04:00           0      0.0444       1.476
  J-F110               JUNCTION      0.18     0.18     0  03:00      0.0558      0.0558       0.343
  J-F111               JUNCTION      0.23     0.23     0  03:00      0.0733      0.0733       1.003
  WWMF109000           JUNCTION      0.00     0.97     0  14:42           0       0.345       0.119
  WWMF109001           JUNCTION      0.00     0.97     0  14:42           0       0.346       0.024
  WWMF109002           JUNCTION      0.03     0.98     0  14:41     0.00925       0.346       0.035
  WWMF109003           JUNCTION      0.00     0.97     0  14:40           0       0.337       0.127
  WWMF109004           JUNCTION      0.08     1.15     0  14:39      0.0277       0.338       0.333
  WWMF109005           JUNCTION      0.06     0.84     0  01:10      0.0211       0.306       0.179
  WWMF109006           JUNCTION      0.03     0.78     0  01:10     0.00925       0.286       0.183
  WWMF109040           JUNCTION      0.00     0.00     0  00:00           0           0       0.000 gal
  WWMF109150           JUNCTION      0.00     0.98     0  14:41           0       0.346       0.115
  WWMF109153           JUNCTION      0.04     1.01     0  14:43      0.0152        0.36       0.127
  WWMF117018           JUNCTION      0.00     0.05     0  15:00    0.000685       0.017       0.852
  WWMF117019           JUNCTION      0.01     0.05     0  15:00     0.00274      0.0163       0.282
  WWMF117020           JUNCTION      0.03     0.04     0  15:00       0.011      0.0137       0.649
  WWMF117021           JUNCTION      0.01     0.01     0  14:00     0.00274     0.00274       0.576
  WWMF117022           JUNCTION      0.00     0.00     0  00:00           0           0       0.000 gal
  WWMF117023           JUNCTION      0.00     0.00     0  00:00           0           0       0.000 gal
  WWMF117024           JUNCTION      0.00     0.00     0  00:00           0           0       0.000 gal
  WWMF117025           JUNCTION      0.00     1.07     0  01:26           0       0.387       0.117
  WWMF117026           JUNCTION      0.00     1.07     0  01:24           0       0.388       0.373
  WWMF117027           JUNCTION      0.01     1.07     0  01:23      0.0033       0.389       0.178
  WWMF117028           JUNCTION      0.00     1.06     0  14:45           0       0.387       0.158
  WWMF118001           JUNCTION      0.00     0.04     0  00:20           0     0.00851       1.429
  WWMF118002           JUNCTION      0.00     0.02     0  01:55           0      0.0085       0.302
  WWMF118003           JUNCTION      0.03     0.05     0  01:53     0.00925      0.0182       0.094
  WWMF118023           JUNCTION      0.00     0.05     0  01:54           0      0.0181       0.166
  WWMF118024           JUNCTION      0.00     0.03     0  01:55           0     0.00962       0.096
  WWMF118025           JUNCTION      0.00     0.03     0  01:56           0     0.00961       0.145
  WWMF118026           JUNCTION      0.03     1.04     0  14:44     0.00925       0.379       0.126
  WWMF118048           JUNCTION      0.00     1.34     0  01:28           0       0.484       0.072
  WWMF118049           JUNCTION      0.27     1.34     0  01:28      0.0978       0.484       0.016
  WWMF118050           JUNCTION      0.00     1.07     0  01:28           0       0.387       0.050
  WWMF127007           JUNCTION      0.01     0.26     0  15:00     0.00274      0.0884       0.184
  WWMF127008           JUNCTION      0.00     0.23     0  15:00    0.000685      0.0769       0.216
  WWMF127009           JUNCTION      0.00     0.23     0  15:00    0.000685      0.0763       0.084
  WWMF127010           JUNCTION      0.00     0.23     0  15:00    0.000685      0.0758       0.200
  WWMF127011           JUNCTION      0.00     0.22     0  15:00           0      0.0752       0.158
  WWMF127012           JUNCTION      0.03     0.22     0  15:00      0.0116      0.0754       0.201
  WWMF127013           JUNCTION      0.00     0.19     0  15:00           0      0.0638       0.147
  WWMF127014           JUNCTION      0.00     0.19     0  15:00           0      0.0639       0.164
  WWMF127015           JUNCTION      0.09     0.19     0  15:00      0.0301       0.064       0.184
  WWMF127016           JUNCTION      0.00     0.10     0  15:00           0      0.0339       0.016
  WWMF127017           JUNCTION      0.05     0.10     0  15:00      0.0171       0.034       0.220
  WWMF127044           JUNCTION      0.03     0.03     0  14:00     0.00891     0.00891       0.225
  WWMF127115           JUNCTION      0.00     0.09     0  04:00    0.000931      0.0276       0.046
  WWMF127116           JUNCTION      0.00     0.06     0  04:00    0.000931      0.0174       0.402
  WWMF127117           JUNCTION      0.01     0.05     0  04:00     0.00279      0.0166       0.461
  WWMF127118           JUNCTION      0.00     0.04     0  04:00           0      0.0138       0.216
  WWMF127119           JUNCTION      0.04     0.04     0  03:00       0.013       0.013       0.057
  WWMF127203           JUNCTION      0.00     0.04     0  04:00    0.000931      0.0139       0.531
  WWMF127220           JUNCTION      0.00     0.04     0  03:04           0       0.013       0.410
  WWMF137001           JUNCTION      0.00     0.27     0  15:00           0      0.0916       0.019
  WWMF137002           JUNCTION      0.00     0.28     0  15:00    0.000685      0.0916       0.019
  WWMF137003           JUNCTION      0.01     0.27     0  15:00     0.00343       0.091       0.075
  WWMF137004           JUNCTION      0.00     0.26     0  15:02           0      0.0876       0.045
  WWMF137005           JUNCTION      0.00     0.26     0  15:00           0      0.0881       0.581
  WWMF137006           JUNCTION      0.00     0.26     0  15:00           0      0.0882       0.144
  WWMF137072           JUNCTION      0.04     0.31     0  15:00       0.013       0.105       0.019
  WWMF79028            JUNCTION      0.02     0.09     0  01:00     0.00771      0.0358       0.425
  WWMF79029            JUNCTION      0.00     0.07     0  01:00           0      0.0281       0.153
  WWMF79030            JUNCTION      0.00     0.07     0  01:00           0      0.0281       0.032
  WWMF79031            JUNCTION      0.00     0.07     0  01:00           0      0.0282       0.162
  WWMF89019            JUNCTION      0.00     0.22     0  01:00           0      0.0817       0.266
  WWMF89020            JUNCTION      0.00     0.22     0  01:00           0      0.0818       0.021
  WWMF89021            JUNCTION      0.05     0.22     0  01:00       0.018      0.0819       0.143
  WWMF89022            JUNCTION      0.00     0.17     0  01:00           0      0.0641       0.358
  WWMF89023            JUNCTION      0.01     0.16     0  01:00     0.00321      0.0624       0.132
  WWMF89024            JUNCTION      0.05     0.16     0  01:00       0.018      0.0593       0.069
  WWMF89025            JUNCTION      0.00     0.11     0  01:00           0      0.0414       0.162
  WWMF89026            JUNCTION      0.00     0.11     0  01:00           0      0.0414       0.027
  WWMF89027            JUNCTION      0.02     0.11     0  01:00     0.00578      0.0414       0.092
  WWMF89160            JUNCTION      0.01     0.17     0  01:00     0.00193      0.0643       0.269
  WWMF99007            JUNCTION      0.25     0.76     0  01:08      0.0914       0.277       0.199
  WWMF99008            JUNCTION      0.00     0.50     0  01:07           0       0.186       0.065
  WWMF99009            JUNCTION      0.05     0.50     0  01:06      0.0185       0.186       0.181
  WWMF99011            JUNCTION      0.00     0.45     0  01:04           0       0.168       0.242
  WWMF99012            JUNCTION      0.10     0.45     0  01:02      0.0354       0.168       0.116
  WWMF99013            JUNCTION      0.06     0.35     0  01:02      0.0211       0.133       0.065
  WWMF99014            JUNCTION      0.00     0.30     0  01:01           0       0.112       0.166
  WWMF99015            JUNCTION      0.04     0.30     0  01:00      0.0152       0.112       0.091
  WWMF99016            JUNCTION      0.00     0.26     0  01:00     0.00128      0.0967       0.091
  WWMF99017            JUNCTION      0.00     0.25     0  01:00           0      0.0955       0.046
  WWMF99018            JUNCTION      0.03     0.25     0  01:00      0.0122      0.0956       0.090
  WWMF99152            JUNCTION      0.01     0.22     0  01:00     0.00193      0.0834       0.078
  WWMG108005           JUNCTION      0.00     0.03     0  01:50           0     0.00895       0.146
  WWMG108006           JUNCTION      0.00     0.03     0  01:29           0     0.00908       1.410
  WWMG108007           JUNCTION      0.03     0.03     0  01:00     0.00925     0.00925       1.852
  WWMG108008           JUNCTION      0.01     0.52     0  01:56     0.00296        0.24       0.020
  WWMG108009           JUNCTION      0.00     0.51     0  01:05           0       0.237       0.268
  WWMG108010           JUNCTION      0.00     0.51     0  01:02           0       0.238       0.154
  WWMG108011           JUNCTION      0.51     0.51     0  01:00       0.238       0.238       0.073
  WWMG108080           JUNCTION      0.01     1.96     0  01:24     0.00296       0.731      -0.071
  WWMG109046           JUNCTION      0.00     1.43     0  01:23           0       0.492       0.817
  WWMG109047           JUNCTION      0.07     1.48     0  01:21      0.0306       0.493       0.182
  WWMG109048           JUNCTION      0.04     1.51     0  01:19      0.0168       0.461      -0.392
  WWMG109049           JUNCTION      0.01     1.46     0  01:18     0.00296       0.446       0.419
  WWMG109050           JUNCTION      0.01     1.47     0  01:17     0.00296       0.443       0.077
  WWMG109051           JUNCTION      0.01     1.48     0  01:16     0.00296       0.441       0.084
  WWMG114000           JUNCTION      0.02     1.92     0  03:08     0.00618       0.818       0.016
  WWMG114001           JUNCTION      0.00     1.06     0  03:00     0.00124       0.358       0.201
  WWMG114002           JUNCTION      0.01     1.05     0  03:00     0.00309       0.358       0.172
  WWMG116235           JUNCTION      0.00     4.74     0  02:00    0.000768        1.49       0.080
  WWMG116236           JUNCTION      0.01     4.78     0  01:27      0.0023        1.48      -0.641
  WWMG116237           JUNCTION      0.03     4.82     0  01:26     0.00874         1.5       0.961
  WWMG116238           JUNCTION      0.00     4.83     0  01:26    0.000768         1.5       0.742
  WWMG116239           JUNCTION      0.01     4.83     0  01:25     0.00691         1.5       0.103
  WWMG116240           JUNCTION      0.01     4.94     0  01:25     0.00296        1.49       0.170
  WWMG116241           JUNCTION      0.01     4.99     0  01:25     0.00296        1.49       0.041
  WWMG117195           JUNCTION      0.01    57.51     0  16:46     0.00296        1.48      -0.703
  WWMG118004           JUNCTION      0.00     0.03     0  01:51           0     0.00894       0.273
  WWMG118086           JUNCTION      0.03     1.96     0  01:26      0.0138       0.745       0.882
  WWMG118104           JUNCTION      0.00     1.91     0  01:32           0       0.598     -18.908
  WWMG123072           JUNCTION      0.00     1.96     0  03:15     0.00124       0.831       0.176
  WWMG123073           JUNCTION      0.00     1.96     0  03:13     0.00124       0.831       0.138
  WWMG123074           JUNCTION      0.00     1.96     0  03:11     0.00124       0.831       0.124
  WWMG123075           JUNCTION      0.00     1.96     0  03:10     0.00124        0.83       0.065
  WWMG123076           JUNCTION      0.02     1.95     0  03:10     0.00556       0.829       0.019
  WWMG123077           JUNCTION      0.00     1.94     0  03:09     0.00124       0.824       0.051
  WWMG123078           JUNCTION      0.01     1.94     0  03:09     0.00433       0.823       0.031
  WWMG123079           JUNCTION      0.00     1.93     0  03:08     0.00124       0.819       0.064
  WWMG126098           JUNCTION      0.00     0.02     0  03:00    0.000768     0.00609       0.372
  WWMG126102           JUNCTION      0.01     0.01     0  02:00      0.0023      0.0023      -0.045
  WWMG126147           JUNCTION      0.00     0.00     0  00:00           0           0       0.000 gal
  WWMG126164           JUNCTION      0.00     0.00     0  02:00    0.000768    0.000768       0.048
  WWMG126200           JUNCTION      0.00     0.10     0  04:00    0.000931      0.0294       0.625
  WWMG126236           JUNCTION      0.01     4.60     0  02:06     0.00154         1.5       0.153
  WWMG126237           JUNCTION      0.01     4.63     0  02:05     0.00154         1.5       0.064
  WWMG126238           JUNCTION      0.00     4.62     0  02:05    0.000768        1.51       0.614
  WWMG126239           JUNCTION      0.00     4.66     0  02:03    0.000768        1.51       0.139
  WWMG126240           JUNCTION      0.00     4.66     0  02:03           0        1.51       0.069
  WWMG126241           JUNCTION      0.01     4.66     0  02:02     0.00154        1.51       0.055
  WWMG126242           JUNCTION      0.00     4.67     0  02:02           0        1.51       0.096
  WWMG126243           JUNCTION      0.00     4.71     0  02:01           0        1.49      -1.016
  WWMG127109           JUNCTION      0.00     0.10     0  04:00    0.000931       0.031       0.468
  WWMG127110           JUNCTION      0.00     0.10     0  04:00    0.000931      0.0302       0.405
  WWMG127114           JUNCTION      0.00     0.09     0  04:00    0.000931      0.0285       0.096
  WWMG127133           JUNCTION      0.03     0.03     0  03:00     0.00931     0.00931       0.183
  WWMG127188           JUNCTION      0.01     0.02     0  03:00     0.00307     0.00538       1.063
  WWMG127195           JUNCTION      0.01     4.67     0  02:03      0.0023        1.51       0.090
  WWMG136015           JUNCTION      0.02     6.02     0  02:10     0.00461        1.69       0.135
  WWMG136016           JUNCTION      0.01     7.91     0  13:06      0.0023         1.7      -0.283
  WWMG136017           JUNCTION      0.02     4.61     0  02:09     0.00614        1.52      -0.301
  WWMG136018           JUNCTION      0.02     4.61     0  02:08     0.00461        1.51       0.095
  WWMG136019           JUNCTION      0.00     4.61     0  02:07           0        1.51       0.457
  WWMG136020           JUNCTION      0.03     4.61     0  02:10     0.00845        1.53       0.029
  WWMG136021           JUNCTION      0.01     0.05     0  03:00     0.00154      0.0152       0.009
  WWMG136035           JUNCTION      0.01     0.20     0  04:00     0.00465      0.0632       0.214
  WWMG136036           JUNCTION      0.00     0.17     0  04:00           0      0.0522       0.067
  WWMG136037           JUNCTION      0.01     0.14     0  04:00     0.00279      0.0441       0.540
  WWMG136038           JUNCTION      0.02     0.13     0  04:00     0.00651      0.0415       0.311
  WWMG136039           JUNCTION      0.00     0.11     0  04:01           0       0.035       0.209
  WWMG136050           JUNCTION      0.01     0.09     0  03:00     0.00384      0.0276       0.201
  WWMG136051           JUNCTION      0.01     0.07     0  03:00      0.0023        0.02       0.118
  WWMG136053           JUNCTION      0.01     0.05     0  03:00      0.0023      0.0146       0.128
  WWMG136054           JUNCTION      0.01     0.04     0  03:00      0.0023      0.0124       0.574
  WWMG136064           JUNCTION      0.00     0.04     0  03:00    0.000768      0.0136       0.078
  WWMG136065           JUNCTION      0.01     0.04     0  03:00      0.0023      0.0129       0.325
  WWMG136066           JUNCTION      0.01     0.03     0  03:00     0.00307      0.0106       0.148
  WWMG136067           JUNCTION      0.00     0.02     0  03:00    0.000768     0.00757       0.120
  WWMG136068           JUNCTION      0.00     0.02     0  03:00    0.000768     0.00682       0.133
  WWMG136069           JUNCTION      0.00     0.02     0  03:02           0     0.00605       0.078
  WWMG136070           JUNCTION      0.00     0.02     0  03:00           0     0.00606       0.191
  WWMG136074           JUNCTION      0.01     0.01     0  02:00     0.00384     0.00384       0.241
  WWMG136095           JUNCTION      0.01     0.12     0  04:00     0.00372      0.0353       0.187
  WWMG136097           JUNCTION      0.01     0.03     0  02:59      0.0023     0.00782       0.119
  WWMG136100           JUNCTION      0.00     0.00     0  00:00           0           0       0.000 gal
  WWMG136254           JUNCTION      0.01     0.03     0  03:00      0.0023      0.0101       0.132
  WWMG136260           JUNCTION      0.00     4.58     0  02:07           0         1.5       0.058
  WWMG137106           JUNCTION      0.00     0.12     0  04:00           0      0.0352       0.589
  WWMG137107           JUNCTION      0.00     0.10     0  04:00           0      0.0317       0.543
  WWMG137183           JUNCTION      0.00     0.10     0  04:00    0.000931      0.0318       0.048
  WWMG137193           JUNCTION      0.01     0.06     0  03:00     0.00307      0.0177       0.075
  WWMG137194           JUNCTION      0.02     0.19     0  04:00     0.00651      0.0587       0.331
  WWMG137195           JUNCTION      0.03     0.17     0  04:00     0.00838      0.0523       0.059
  WWMG146012           JUNCTION      0.01     0.74     0  03:50      0.0023       0.223       0.020
  WWMG146013           JUNCTION      0.01     0.74     0  03:50     0.00154       0.222       0.362
  WWMG146014           JUNCTION      0.01     5.70     0  02:11     0.00307        1.69       0.045
  WWMG146025           JUNCTION      0.08     0.73     0  03:49      0.0242        0.22       0.063
  WWMG146030           JUNCTION      0.00     0.76     0  20:46           0       0.171     -12.637
  WWMG146075           JUNCTION      0.01     5.69     0  02:12     0.00154         1.7       0.118
  WWMG146076           JUNCTION      0.01     5.97     0  01:43     0.00154        1.92       0.162
  WWMG146077           JUNCTION      0.01     5.90     0  02:14      0.0023        1.95       0.210
  WWMG146078           JUNCTION      0.01     0.10     0  03:00      0.0023      0.0299       0.007
  WWMG146079           JUNCTION      0.01     5.79     0  02:16      0.0023        1.95       0.119
  WWMG79032            JUNCTION      0.04     0.07     0  01:00      0.0148      0.0282       0.079
  WWMG79033            JUNCTION      0.00     0.04     0  00:52     0.00128      0.0135       0.298
  WWMG79034            JUNCTION      0.03     0.03     0  00:00      0.0122      0.0122       0.208
  WWMG79195            JUNCTION      0.00     0.08     0  00:56           0      0.0154       0.293
  WWMG79196            JUNCTION      0.01     0.08     0  00:57     0.00116      0.0155       0.136
  WWMG79244            JUNCTION      0.00     0.08     0  00:48    0.000579      0.0143       0.190
  WWMG79245            JUNCTION      0.00     0.07     0  00:54           0      0.0138       0.201
  WWMG79246            JUNCTION      0.07     0.07     0  00:00      0.0138      0.0138       0.215
  WWMG89076            JUNCTION      0.03     0.03     0  01:00      0.0138      0.0138       0.041
  WWMG89185            JUNCTION      0.00     0.26     0  01:00           0      0.0488       0.035
  WWMG89186            JUNCTION      0.00     0.26     0  01:00           0      0.0488       0.125
  WWMG89187            JUNCTION      0.00     0.26     0  01:00    0.000579       0.049       0.279
  WWMG89189            JUNCTION      0.01     0.26     0  01:00     0.00116      0.0485       0.225
  WWMG89192            JUNCTION      0.00     0.25     0  01:00           0      0.0475       0.310
  WWMG89193            JUNCTION      0.13     0.25     0  01:00      0.0247      0.0476       0.108
  WWMG89194            JUNCTION      0.04     0.12     0  00:59     0.00753      0.0229       0.206
  WWMG89250            JUNCTION      0.00     1.00     0  01:46           0       0.149       0.387
  WWMG89258            JUNCTION      0.04     1.26     0  00:49      0.0207       0.232       0.342
  WWMG89259            JUNCTION      0.00     1.44     0  12:21           0       0.214       1.358
  WWMG89260            JUNCTION      0.00     8.70     0  10:06           0       0.211      -1.520
  WWMG89261            JUNCTION      0.00     0.26     0  01:00           0      0.0488       0.159
  WWMG99099            JUNCTION      0.01     1.49     0  01:15     0.00296       0.438       0.084
  WWMG99100            JUNCTION      0.05     1.49     0  01:15      0.0237       0.435       0.066
  WWMG99101            JUNCTION      0.00     1.46     0  01:14           0       0.412       0.088
  WWMG99102            JUNCTION      0.00     1.49     0  01:13           0       0.413       0.116
  WWMG99104            JUNCTION      0.37     1.54     0  01:12       0.172       0.413       0.158
  WWMG99105            JUNCTION      0.02     1.21     0  01:11     0.00987       0.241       0.210
  WWMH104008           JUNCTION      0.00     0.97     0  03:00    0.000618       0.332       0.074
  WWMH104009           JUNCTION      0.00     0.97     0  03:00    0.000618       0.332       0.083
  WWMH104010           JUNCTION      0.00     0.97     0  03:00     0.00124       0.331       0.009
  WWMH104011           JUNCTION      0.03     0.96     0  03:00      0.0105        0.33       0.159
  WWMH104012           JUNCTION      0.01     0.93     0  03:00     0.00247        0.32       0.058
  WWMH104040           JUNCTION      0.00     0.14     0  04:00           0       0.071       0.036
  WWMH104041           JUNCTION      0.04     0.14     0  04:00      0.0232       0.071       0.139
  WWMH104042           JUNCTION      0.01     0.09     0  04:00     0.00397       0.048       0.275
  WWMH104043           JUNCTION      0.02     0.08     0  04:00     0.00794      0.0442       0.394
  WWMH104044           JUNCTION      0.07     0.07     0  03:00      0.0364      0.0364       0.359
  WWMH105001           JUNCTION      0.15     0.93     0  03:00      0.0518       0.317       0.014
  WWMH105002           JUNCTION      0.00     0.78     0  03:00    0.000618       0.266       0.162
  WWMH105003           JUNCTION      0.02     0.78     0  02:59      0.0068       0.266       0.043
  WWMH105004           JUNCTION      0.00     0.76     0  02:59    0.000618       0.259       0.090
  WWMH105005           JUNCTION      0.04     0.75     0  02:59      0.0136       0.259       0.091
  WWMH105017           JUNCTION      0.00     0.71     0  02:57    0.000618       0.245       0.073
  WWMH114003           JUNCTION      0.00     1.04     0  03:00     0.00124       0.353       0.022
  WWMH114004           JUNCTION      0.05     1.03     0  03:00      0.0185       0.352       0.079
  WWMH114005           JUNCTION      0.00     0.98     0  03:00     0.00124       0.334       0.088
  WWMH114006           JUNCTION      0.00     0.98     0  03:00    0.000618       0.333       0.072
  WWMH114007           JUNCTION      0.00     0.97     0  03:00    0.000618       0.332       0.096
  WWMH114026           JUNCTION      0.00     0.87     0  04:00     0.00132       0.453       0.014
  WWMH114027           JUNCTION      0.01     0.86     0  04:00     0.00596       0.452       0.024
  WWMH114028           JUNCTION      0.00     0.85     0  04:00           0       0.446       0.049
  WWMH114029           JUNCTION      0.00     0.85     0  04:00     0.00199       0.446       0.074
  WWMH114030           JUNCTION      0.01     0.85     0  04:00     0.00397       0.444       0.029
  WWMH114031           JUNCTION      0.67     0.84     0  04:00       0.349       0.441       0.105
  WWMH114033           JUNCTION      0.00     0.18     0  04:00     0.00199      0.0914       0.166
  WWMH114035           JUNCTION      0.00     0.17     0  04:00           0      0.0897       0.260
  WWMH114036           JUNCTION      0.02     0.17     0  04:00      0.0113      0.0897       0.093
  WWMH114037           JUNCTION      0.01     0.15     0  04:00     0.00596      0.0787       0.225
  WWMH114038           JUNCTION      0.00     0.14     0  04:00     0.00199      0.0728       0.141
  WWMH114039           JUNCTION      0.00     0.14     0  04:00           0      0.0709       0.149
  WWMH114127           JUNCTION      0.00     0.87     0  04:00     0.00132       0.454       0.031
  WWMH114140           JUNCTION      0.01     1.05     0  03:00     0.00309       0.356       0.275
  WWMH123003           JUNCTION      0.02     0.43     0  06:00     0.00769       0.167       0.022
  WWMH123004           JUNCTION      0.02     0.41     0  06:00     0.00699       0.159       0.144
  WWMH123005           JUNCTION      0.01     0.39     0  05:58      0.0021       0.153       0.175
  WWMH123006           JUNCTION      0.07     0.39     0  05:51      0.0273       0.151       0.126
  WWMH123007           JUNCTION      0.32     0.32     0  05:00       0.124       0.124       0.142
  WWMH123068           JUNCTION      0.00     2.03     0  03:18     0.00124       0.856       0.157
  WWMH123069           JUNCTION      0.00     2.03     0  03:18     0.00124       0.855       0.050
  WWMH123070           JUNCTION      0.07     2.03     0  03:17      0.0241       0.854       0.056
  WWMH123071           JUNCTION      0.00     1.97     0  03:17     0.00124       0.831       0.070
  WWMH126133           JUNCTION      0.01     0.01     0  02:00     0.00307     0.00307       0.077
  WWMH131073           JUNCTION      0.00     2.44     0  03:31     0.00124        1.05       0.142
  WWMH131074           JUNCTION      0.00     2.43     0  03:31     0.00124        1.05       0.059
  WWMH131075           JUNCTION      0.00     2.43     0  03:28     0.00124        1.05       0.136
  WWMH131080           JUNCTION      0.00     2.43     0  03:27     0.00124        1.05       0.111
  WWMH131081           JUNCTION      0.06     2.43     0  03:26      0.0222        1.05       0.055
  WWMH131082           JUNCTION      0.00     2.37     0  03:25     0.00124        1.03       0.147
  WWMH131083           JUNCTION      0.00     2.37     0  03:23     0.00124        1.03       0.134
  WWMH133000           JUNCTION      0.00     2.04     0  03:22     0.00124       0.857       0.018
  WWMH133001           JUNCTION      0.00     0.44     0  06:00      0.0014        0.17       0.067
  WWMH133002           JUNCTION      0.00     0.44     0  06:00      0.0014       0.168       0.025
  WWMH133066           JUNCTION      0.00     2.04     0  03:22     0.00124       0.856       0.075
  WWMH133067           JUNCTION      0.00     2.04     0  03:20     0.00124       0.856       0.112
  WWMH133096           JUNCTION      0.00     2.36     0  03:23     0.00124        1.03       0.012
  WWMH136135           JUNCTION      0.01     0.04     0  03:00     0.00154      0.0112       0.249
  WWMH136204           JUNCTION      0.01     0.02     0  03:00      0.0023     0.00537       0.317
  WWMH136247           JUNCTION      0.01     0.07     0  03:00     0.00154      0.0218       0.083
  WWMH136248           JUNCTION      0.01     0.07     0  03:00      0.0023      0.0203       0.173
  WWMH136249           JUNCTION      0.02     0.06     0  03:00     0.00537       0.018       0.144
  WWMH136250           JUNCTION      0.01     0.04     0  03:00     0.00154      0.0127       0.052
  WWMH136253           JUNCTION      0.01     0.03     0  03:00      0.0043     0.00965       0.134
  WWMH136262           JUNCTION      0.02     0.02     0  02:00     0.00552     0.00552       0.031
  WWMH141000           JUNCTION      0.18    10.84     0  22:32      0.0542        3.97      -0.010
  WWMH141001           JUNCTION      0.00     4.22     0  14:32     0.00124        1.82       0.029
  WWMH141002           JUNCTION      0.00     4.23     0  14:31     0.00124        1.82       0.134
  WWMH141003           JUNCTION      0.00     4.23     0  14:31     0.00124        1.82       0.024
  WWMH141004           JUNCTION      0.00     4.25     0  14:30     0.00124        1.82       0.141
  WWMH141005           JUNCTION      0.00     4.25     0  14:29     0.00124        1.82       0.049
  WWMH141006           JUNCTION      0.00     2.20     0  14:51      0.0013       0.773       0.017
  WWMH141007           JUNCTION      0.00     2.19     0  14:51      0.0013       0.772       0.017
  WWMH141071           JUNCTION      0.00     2.44     0  03:33     0.00124        1.05       0.053
  WWMH141072           JUNCTION      0.00     2.44     0  03:33     0.00124        1.05       0.037
  WWMH146000           JUNCTION      0.01     6.12     0  02:29     0.00154        2.09      -0.011
  WWMH146001           JUNCTION      0.01     6.12     0  02:29     0.00154        2.09       0.016
  WWMH146002           JUNCTION      0.01     6.13     0  02:27     0.00154        2.09       0.116
  WWMH146003           JUNCTION      0.01     6.16     0  02:26     0.00154         2.1       0.205
  WWMH146004           JUNCTION      0.01     6.15     0  02:24     0.00154         2.1       0.156
  WWMH146005           JUNCTION      0.05     6.15     0  02:24      0.0161         2.1       0.166
  WWMH146006           JUNCTION      0.41     6.12     0  02:22       0.123        2.08       0.028
  WWMH146007           JUNCTION      0.02     5.67     0  02:21     0.00614        1.94       0.205
  WWMH146008           JUNCTION      0.01     5.68     0  02:19      0.0023        1.94       0.197
  WWMH146246           JUNCTION      0.01     0.08     0  03:00     0.00154      0.0233       0.008
  WWMH146247           JUNCTION      0.01     5.77     0  02:17     0.00154        1.94       0.350
  WWMH95018            JUNCTION      0.08     0.71     0  02:59      0.0288       0.245       0.141
  WWMH95019            JUNCTION      0.00     0.63     0  02:54    0.000618       0.216       0.069
  WWMH95020            JUNCTION      0.00     0.63     0  02:59     0.00124       0.216       0.122
  WWMH95021            JUNCTION      0.01     0.62     0  02:55     0.00247       0.215       0.036
  WWMH95022            JUNCTION      0.01     0.62     0  02:59     0.00371       0.212       0.086
  WWMH95023            JUNCTION      0.01     0.61     0  02:56     0.00247       0.209       0.170
  WWMH95024            JUNCTION      0.60     0.60     0  02:00       0.207       0.207       0.070
  WWMI102001           JUNCTION      0.00     0.27     0  14:00           0        0.14       0.204
  WWMI102002           JUNCTION      0.00     0.27     0  14:00           0        0.14       0.215
  WWMI102003           JUNCTION      0.27     0.27     0  13:00       0.141       0.141       0.309
  WWMI102066           JUNCTION      0.00     0.46     0  14:00     0.00253       0.234       0.109
  WWMI102067           JUNCTION      0.01     0.45     0  14:00     0.00317       0.231       0.041
  WWMI102068           JUNCTION      0.03     0.44     0  14:00      0.0171       0.228       0.078
  WWMI102069           JUNCTION      0.00     0.41     0  14:00           0       0.212       0.173
  WWMI102070           JUNCTION      0.02     0.41     0  14:00     0.00886       0.212       0.044
  WWMI102071           JUNCTION      0.00     0.39     0  14:00     0.00127       0.203       0.086
  WWMI102072           JUNCTION      0.01     0.39     0  14:00     0.00696       0.202       0.098
  WWMI102073           JUNCTION      0.01     0.38     0  14:00     0.00696       0.195       0.035
  WWMI102131           JUNCTION      0.00     0.37     0  14:00           0       0.188       0.049
  WWMI102132           JUNCTION      0.00     0.37     0  14:00           0       0.188       0.070
  WWMI104050           JUNCTION      0.00     0.37     0  14:00     0.00127       0.189       0.046
  WWMI104051           JUNCTION      0.00     0.37     0  14:00           0       0.188       0.021
  WWMI111032           JUNCTION      0.00     0.91     0  14:00           0       0.464       0.187
  WWMI111035           JUNCTION      0.01     0.91     0  14:00     0.00317       0.465       0.121
  WWMI111036           JUNCTION      0.00     0.90     0  14:00           0       0.462       0.048
  WWMI111037           JUNCTION      0.03     0.90     0  14:00      0.0146       0.462       0.013
  WWMI111040           JUNCTION      0.00     0.91     0  14:00           0       0.465       0.154
  WWMI111053           JUNCTION      0.05     0.87     0  14:00      0.0272       0.448       0.022
  WWMI111099           JUNCTION      0.09     0.82     0  14:00      0.0481       0.421       0.186
  WWMI112000           JUNCTION      0.00     0.27     0  14:00           0        0.14       0.017
  WWMI121026           JUNCTION      0.06     2.58     0  14:03      0.0314       0.783       0.391
  WWMI121027           JUNCTION      0.00     2.49     0  14:02           0       0.752       0.066
  WWMI121028           JUNCTION      0.04     0.97     0  13:59      0.0195       0.484       0.149
  WWMI121029           JUNCTION      0.00     0.91     0  14:00           0       0.464       0.114
  WWMI121030           JUNCTION      0.00     0.91     0  14:00           0       0.464       0.062
  WWMI121031           JUNCTION      0.00     0.91     0  14:00     0.00127       0.464       0.166
  WWMI121100           JUNCTION      0.00     0.91     0  14:00     0.00127       0.465       0.086
  WWMI121103           JUNCTION      0.00     2.52     0  14:00           0       0.753       0.082
  WWMI131009           JUNCTION      0.00     2.25     0  14:48    0.000649       0.772       0.079
  WWMI131010           JUNCTION      0.00     2.31     0  14:46           0       0.773       0.149
  WWMI131011           JUNCTION      0.00     2.31     0  14:45           0       0.775       0.218
  WWMI131012           JUNCTION      0.00     2.32     0  14:45           0       0.775       0.096
  WWMI131013           JUNCTION      0.00     2.33     0  14:44           0       0.774      -0.138
  WWMI131014           JUNCTION      0.00     2.34     0  14:43      0.0013       0.777       0.378
  WWMI131017           JUNCTION      0.00     2.36     0  14:42           0       0.777       0.144
  WWMI131018           JUNCTION      0.02     2.36     0  14:42      0.0104       0.777       0.015
  WWMI131019           JUNCTION      0.00     2.40     0  14:41           0       0.768       0.168
  WWMI131020           JUNCTION      0.00     2.46     0  14:17           0       0.765      -0.403
  WWMI131021           JUNCTION      0.00     2.47     0  14:15           0       0.768       0.412
  WWMI131022           JUNCTION      0.00     2.47     0  14:15           0       0.784       2.108
  WWMI131023           JUNCTION      0.01     2.55     0  14:13     0.00649       0.787       0.373
  WWMI131024           JUNCTION      0.00     2.54     0  14:12           0       0.781       0.014
[...]
  WWGM1306                1.00   0.00  0.00  0.00  1.00  0.00  0.00  0.00  0.00  0.00
  WWGM1307                2.54   0.00  0.02  0.00  0.00  0.00  0.98  0.00  0.00  0.00
  WWGM1308                1.00   0.00  0.00  0.00  0.00  0.00  0.00  1.00  0.00  0.00
  WWGM1309                1.00   0.00  0.00  0.00  0.14  0.00  0.00  0.86  0.00  0.00
  WWGM1313                1.00   0.00  0.00  0.00  0.00  0.00  0.00  1.00  0.00  0.00
  WWGM1314                1.00   0.00  0.00  0.00  0.68  0.00  0.00  0.32  0.00  0.00
  WWGM1316                1.00   0.00  0.00  0.00  0.00  0.00  0.00  1.00  0.00  0.00
  WWGM1318                1.00   0.00  0.00  0.00  0.00  0.00  0.00  1.00  0.00  0.00
  WWGM1319                2.17   0.00  0.01  0.00  0.91  0.00  0.07  0.00  0.00  0.00
  WWGM1320                1.00   0.00  0.00  0.00  0.64  0.00  0.00  0.36  0.00  0.00
  WWGM1321                6.59   0.00  0.00  0.00  0.97  0.00  0.00  0.03  0.96  0.00
  WWGM1323                1.00   0.01  0.00  0.00  0.00  0.00  0.00  0.99  0.00  0.00
  WWGM1324                1.00   0.00  0.00  0.00  0.96  0.00  0.00  0.04  0.24  0.00
  WWGM1325                1.00   0.00  0.00  0.00  0.00  0.00  0.00  1.00  0.00  0.00
  WWGM1326                1.00   0.00  0.00  0.00  0.00  0.00  0.00  1.00  0.00  0.00
  WWGM1330                1.00   0.00  0.00  0.00  0.00  0.00  0.00  1.00  0.00  0.00
  WWGM1331                1.00   0.00  0.00  0.00  0.00  0.00  0.00  1.00  0.00  0.00
  WWGM1338                1.00   0.00  0.00  0.00  0.94  0.00  0.00  0.06  0.00  0.00
  WWGM1339                1.00   0.00  0.00  0.00  0.99  0.00  0.00  0.01  0.00  0.00
  WWGM1341                3.51   0.00  0.00  0.00  0.08  0.00  0.00  0.92  0.02  0.00
  WWGM1342                1.00   0.00  0.00  0.00  1.00  0.00  0.00  0.00  1.00  0.00
  WWGM1352                1.00   0.00  0.00  0.00  1.00  0.00  0.00  0.00  0.99  0.00
  WWGM1353                1.00   0.00  0.00  0.00  1.00  0.00  0.00  0.00  0.00  0.00
  WWGM1355                1.00   0.00  0.00  0.00  0.00  0.00  0.00  1.00  0.00  0.00
  WWGM1356                1.00   0.00  0.00  0.00  0.00  0.00  0.00  1.00  0.00  0.00
  WWGM1358                1.00   0.00  0.00  0.00  0.00  0.04  0.00  0.96  0.03  0.00
  WWGM1368                1.00   0.00  0.00  0.00  1.00  0.00  0.00  0.00  0.99  0.00
  WWGM1369                1.00   0.00  0.00  0.00  0.00  0.00  0.00  1.00  0.00  0.00
  WWGM1371                1.00   0.00  0.00  0.00  0.32  0.00  0.00  0.68  0.00  0.00
  WWGM1372                1.00   0.00  0.00  0.00  0.00  0.00  0.00  1.00  0.00  0.00
  WWGM1373                1.00   0.00  0.00  0.00  0.01  0.00  0.00  0.99  0.00  0.00
  WWGM1378                1.00   0.00  0.00  0.00  1.00  0.00  0.00  0.00  0.02  0.00
  WWGM1379                1.00   0.00  0.00  0.00  1.00  0.00  0.00  0.00  0.93  0.00
  WWGM1380                1.00   0.00  0.00  0.00  1.00  0.00  0.00  0.00  0.98  0.00
  WWGM1381                1.00   0.00  0.00  0.00  1.00  0.00  0.00  0.00  0.98  0.00
  WWGM1382                1.00   0.00  0.00  0.00  0.00  0.00  0.00  1.00  0.00  0.00
  WWGM1383                1.00   0.00  0.00  0.00  1.00  0.00  0.00  0.00  0.98  0.00
  WWGM1389                1.00   0.00  0.00  0.00  0.00  0.00  0.00  1.00  0.00  0.00
  WWGM1390                1.00   0.00  0.00  0.00  1.00  0.00  0.00  0.00  1.00  0.00
  WWGM1401                1.00   0.00  0.00  0.00  0.00  0.00  0.00  1.00  0.00  0.00
  WWGM1402                1.00   0.00  0.00  0.00  0.00  0.00  0.00  1.00  0.00  0.00
  WWGM1403                5.56   0.00  0.00  0.00  0.15  0.00  0.00  0.85  0.00  0.00
  WWGM1411                1.00   0.00  0.00  0.00  0.00  0.00  0.00  1.00  0.00  0.00
  WWGM1419                1.00   0.00  0.00  0.00  0.00  0.00  0.00  1.00  0.00  0.00
  WWGM1420                1.00   1.00  0.00  0.00  0.00  0.00  0.00  0.00  0.00  0.00
  WWGM1422                1.00   1.00  0.00  0.00  0.00  0.00  0.00  0.00  0.00  0.00
  WWGM1442                1.00   0.00  0.00  0.00  0.00  0.00  0.00  1.00  0.00  0.00
  WWGM1447                1.00   0.00  0.00  0.00  0.00  0.00  0.00  1.00  0.00  0.00
  WWGM1448                1.00   0.00  0.00  0.00  0.00  0.00  0.00  1.00  0.00  0.00
  WWGM1449                1.00   0.00  0.00  0.00  0.00  0.00  0.00  1.00  0.00  0.00
  WWGM1451                1.00   0.00  0.00  0.00  0.00  0.00  0.00  1.00  0.00  0.00
  WWGM1452                1.00   0.00  0.00  0.00  0.00  0.00  0.00  1.00  0.00  0.00
  WWGM1462                2.15   0.00  0.00  0.00  0.00  0.00  0.00  1.00  0.00  0.00
  WWGM1463                1.00   0.00  0.00  0.00  0.00  0.00  0.00  1.00  0.00  0.00
  WWGM1464                1.00   0.00  0.00  0.00  1.00  0.00  0.00  0.00  0.00  0.00
  WWGM1465                1.00   0.00  0.00  0.00  0.00  0.00  0.00  1.00  0.00  0.00
  WWGM1470                1.00   0.00  0.00  0.00  0.01  0.00  0.00  0.99  0.00  0.00
  WWGM1476                1.00   0.00  0.00  0.00  0.00  0.00  0.00  1.00  0.00  0.00
  WWGM1477                1.00   0.00  0.00  0.00  0.00  0.00  0.00  1.00  0.00  0.00
  WWGM1480                1.00   0.00  0.00  0.00  0.00  0.00  0.00  1.00  0.00  0.00
  WWGM1481                1.00   0.00  0.00  0.00  0.00  0.00  0.00  1.00  0.00  0.00
  WWGM1529                1.00   0.00  0.00  0.00  0.00  0.00  0.00  1.00  0.00  0.00
  WWGM1534                1.00   0.00  0.00  0.00  0.00  0.00  0.00  1.00  0.00  0.00
  WWGM1539                1.00   0.00  0.00  0.00  0.00  0.00  0.00  1.00  0.00  0.00
  WWGM1547                1.00   0.00  0.00  0.00  0.01  0.25  0.00  0.74  0.23  0.00
  WWGM1548                1.00   0.00  1.00  0.00  0.00  0.00  0.00  0.00  0.00  0.00
  WWGM1551                1.00   0.00  0.00  0.00  0.00  0.00  0.00  1.00  0.00  0.00
  WWGM1552                1.00   0.00  0.00  0.00  0.65  0.00  0.00  0.35  0.11  0.00
  WWGM1553                3.68   0.00  0.00  0.00  0.00  0.01  0.00  0.99  0.00  0.00
  WWGM1554                1.00   0.00  0.00  0.00  0.00  0.00  0.00  1.00  0.00  0.00
  WWGM1555                1.00   0.00  0.00  0.00  1.00  0.00  0.00  0.00  0.77  0.00
  WWGM1557                1.00   0.00  0.00  0.00  0.00  0.00  0.00  1.00  0.00  0.00
  WWGM1560                1.00   0.00  0.00  0.00  0.00  0.00  0.00  1.00  0.00  0.00
  WWGM1564                1.57   1.00  0.00  0.00  0.00  0.00  0.00  0.00  0.00  0.00
  WWGM1565                1.00   0.01  0.00  0.00  0.00  0.00  0.00  0.99  0.00  0.00
  WWGM1566                1.00   0.00  0.01  0.00  0.83  0.00  0.17  0.00  0.00  0.00
  WWGM1567                1.00   0.00  0.00  0.00  0.99  0.00  0.00  0.01  0.98  0.00
  WWGM1568                1.00   0.00  0.00  0.00  0.00  0.00  1.00  0.00  0.00  0.00
  WWGM1569                7.89   0.00  0.00  0.00  0.94  0.00  0.06  0.00  0.00  0.00
  WWGM1570                1.00   0.00  0.00  0.00  0.85  0.00  0.00  0.15  0.40  0.00
  WWGM1571                1.00   0.00  0.00  0.00  0.79  0.00  0.00  0.21  0.00  0.00
  WWGM1572                1.00   0.00  0.00  0.00  0.42  0.00  0.00  0.58  0.30  0.00
  WWGM1573                1.00   0.00  0.00  0.00  0.00  0.88  0.00  0.12  0.81  0.00
  WWGM1574                1.00   0.00  0.00  0.00  0.00  0.00  0.00  1.00  0.00  0.00
  WWGM1575                1.00   0.00  0.00  0.00  0.00  0.00  0.00  1.00  0.00  0.00
  WWGM1590                1.00   0.00  0.00  0.00  0.00  0.00  0.00  1.00  0.00  0.00
  WWGM1591                2.07   0.00  0.00  0.00  0.17  0.00  0.00  0.83  0.00  0.00
  WWGM1592                1.00   0.00  0.00  0.00  0.00  0.00  0.00  1.00  0.00  0.00
  WWGM1603                1.00   0.00  0.00  0.00  0.74  0.00  0.00  0.26  0.37  0.00
  WWGM1604                1.00   0.00  0.00  0.00  0.00  0.00  0.00  1.00  0.00  0.00
  WWGM1605                1.00   0.00  0.00  0.00  0.04  0.00  0.00  0.96  0.00  0.00
  WWGM1606                1.00   0.00  0.00  0.00  0.74  0.00  0.00  0.26  0.00  0.00
  WWGM1607                1.00   0.00  0.00  0.00  0.00  0.00  0.00  1.00  0.00  0.00
  WWGM1614                1.00   1.00  0.00  0.00  0.00  0.00  0.00  0.00  0.00  0.00
  WWGM1617                1.00   0.00  0.00  0.00  0.00  0.00  0.00  1.00  0.00  0.00
  WWGM1618                1.00   0.00  0.00  0.00  0.00  0.00  0.00  1.00  0.00  0.00
  WWGM1619                1.00   0.00  0.00  0.00  0.00  0.00  0.00  0.99  0.01  0.00
  WWGM1639                1.00   0.00  0.00  0.00  0.69  0.00  0.00  0.31  0.01  0.00
  WWGM1641                1.00   0.00  0.00  0.00  0.00  0.00  0.00  1.00  0.00  0.00
  WWGM1642                3.46   0.00  0.00  0.00  0.00  0.00  0.00  1.00  0.00  0.00
  WWGM1643               11.28   0.00  0.00  0.00  0.00  0.00  0.00  1.00  0.00  0.00
  WWGM1644                1.00   0.00  0.00  0.00  0.00  0.00  0.00  1.00  0.00  0.00
  WWGM1645                1.00   0.00  0.00  0.00  0.00  1.00  0.00  0.00  0.00  0.00
  WWGM1646                1.00   0.00  0.00  0.00  0.00  0.00  0.00  1.00  0.00  0.00
  WWGM1647                1.00   0.00  0.00  0.00  0.00  0.00  0.00  1.00  0.00  0.00
  WWGM1648                1.00   0.00  0.00  0.00  0.00  0.00  0.00  1.00  0.00  0.00
  WWGM1649                1.00   0.00  0.00  0.00  0.00  0.00  0.00  1.00  0.00  0.00
  WWGM1650                1.00   0.00  0.00  0.00  0.00  0.00  0.00  1.00  0.00  0.00
  WWGM1653                1.00   0.00  0.00  0.00  0.00  0.00  0.00  1.00  0.00  0.00
  WWGM1654                1.00   0.00  0.00  0.00  0.00  0.00  0.00  1.00  0.00  0.00
  WWGM1655                1.00   0.00  0.00  0.00  0.00  0.00  0.00  1.00  0.00  0.00
  WWGM1669                1.00   0.00  0.00  0.00  1.00  0.00  0.00  0.00  0.96  0.00
  WWGM1685                1.00   0.00  0.00  0.00  0.00  0.00  0.00  1.00  0.00  0.00
  WWGM1689                1.00   0.00  0.00  0.00  0.00  0.00  0.00  1.00  0.00  0.00
  WWGM1709                1.00   0.00  0.00  0.00  0.00  0.00  0.00  1.00  0.00  0.00
  WWGM1710                1.00   0.00  0.00  0.00  1.00  0.00  0.00  0.00  0.99  0.00
  WWGM1713                1.00   0.00  0.00  0.00  0.00  0.00  0.00  1.00  0.00  0.00
  WWGM1718                1.00   0.00  0.00  0.00  0.00  0.00  0.00  1.00  0.00  0.00
  WWGM1739                1.00   0.00  0.00  0.00  0.00  0.00  0.00  1.00  0.00  0.00
  WWGM1740                2.25   0.00  0.00  0.00  0.00  0.00  0.00  1.00  0.00  0.00
  WWGM1742                1.00   0.00  0.00  0.00  0.99  0.00  0.00  0.01  0.98  0.00
  WWGM1743                1.00   0.00  0.00  0.00  1.00  0.00  0.00  0.00  0.99  0.00
  WWGM1753                1.00   0.00  0.00  0.00  0.00  0.00  0.00  1.00  0.00  0.00
  WWGM1755                1.00   0.00  0.00  0.00  1.00  0.00  0.00  0.00  0.99  0.00
  WWGM1756                1.00   0.00  1.00  0.00  0.00  0.00  0.00  0.00  0.00  0.00
  WWGM1760                1.00   0.00  0.00  0.00  1.00  0.00  0.00  0.00  0.99  0.00
  WWGM1762                1.00   0.00  0.00  0.00  0.00  0.00  0.00  1.00  0.00  0.00
  WWGM1763                1.00   0.00  0.00  0.00  0.00  0.00  0.00  1.00  0.00  0.00
  WWGM1764                1.00   0.00  0.00  0.00  0.00  0.00  0.00  1.00  0.00  0.00
  WWGM1766                1.00   0.00  0.00  0.00  0.00  0.00  0.00  1.00  0.00  0.00
  WWGM1767                1.00   0.00  0.00  0.00  0.00  0.00  0.00  1.00  0.00  0.00
  WWGM1768                1.00   0.00  0.00  0.00  0.00  0.00  0.00  1.00  0.00  0.00
  WWGM1769                1.00   0.00  0.00  0.00  0.00  0.00  0.00  1.00  0.00  0.00
  WWGM1770                1.00   0.00  0.00  0.00  1.00  0.00  0.00  0.00  0.99  0.00
  WWGM1771                1.00   0.00  0.00  0.00  0.00  0.00  0.00  1.00  0.00  0.00
  WWGM1773                1.00   0.00  0.00  0.00  0.00  0.00  0.00  1.00  0.00  0.00
  WWGM1779                1.00   0.00  0.00  0.00  0.95  0.00  0.00  0.05  0.53  0.00
  WWGM1780                1.00   0.00  0.00  0.00  0.00  0.00  0.00  1.00  0.00  0.00
  WWGM1781                1.00   0.00  0.00  0.00  0.00  0.00  0.00  1.00  0.00  0.00
  WWGM1782                1.00   0.00  0.00  0.00  0.00  0.00  0.00  1.00  0.00  0.00
  WWGM1788                1.00   0.00  0.00  0.00  0.46  0.00  0.00  0.54  0.00  0.00
  WWGM1790                1.00   0.00  0.00  0.00  0.00  0.00  0.00  1.00  0.00  0.00
  WWGM1791                1.00   0.00  0.00  0.00  1.00  0.00  0.00  0.00  0.84  0.00
  WWGM1792                1.66   0.00  0.00  0.00  0.00  0.00  1.00  0.00  0.00  0.00
  WWGM1793                1.45   0.00  0.00  0.00  1.00  0.00  0.00  0.00  0.72  0.00
  WWGM1794                1.00   0.00  0.00  0.00  0.33  0.66  0.00  0.00  0.31  0.00
  WWGM1795                1.00   0.00  0.00  0.00  0.01  0.99  0.00  0.00  0.97  0.00
  WWGM1796                1.00   0.00  0.00  0.00  1.00  0.00  0.00  0.00  0.00  0.00
  WWGM1798                1.00   0.00  0.00  0.00  1.00  0.00  0.00  0.00  0.98  0.00
  WWGM1799                1.00   0.00  0.00  0.00  1.00  0.00  0.00  0.00  0.91  0.00
  WWGM1800                1.00   0.00  0.00  0.00  1.00  0.00  0.00  0.00  0.78  0.00
  WWGM1802                1.00   0.00  0.00  0.00  1.00  0.00  0.00  0.00  0.08  0.00
  WWGM1810                1.00   0.00  0.00  0.00  0.00  0.00  0.00  1.00  0.00  0.00
  WWGM1811                1.00   0.00  0.00  0.00  0.00  0.00  0.00  1.00  0.00  0.00
  WWGM1812                1.00   0.00  0.00  0.00  0.00  0.00  0.00  1.00  0.00  0.00
  WWGM1828                1.00   0.00  0.00  0.00  0.00  0.00  0.00  1.00  0.00  0.00
  WWGM1834                1.00   0.00  0.00  0.00  0.00  0.00  0.00  1.00  0.00  0.00
  WWGM1835                1.00   0.00  0.00  0.00  0.00  0.00  0.00  1.00  0.00  0.00
  WWGM1837                1.00   0.00  0.00  0.00  0.00  0.00  0.00  1.00  0.00  0.00
  WWGM1839                1.00   0.00  0.00  0.00  0.98  0.00  0.00  0.02  0.49  0.00
  WWGM1840                1.00   0.00  0.00  0.00  0.00  0.00  0.00  1.00  0.00  0.00
  WWGM1842                1.00   0.00  0.00  0.00  0.01  0.00  0.00  0.99  0.00  0.00
  WWGM1967                4.50   0.00  0.00  0.00  0.00  0.00  0.00  1.00  0.00  0.00
  WWGM2024                1.00   0.00  0.00  0.00  0.00  0.00  0.00  1.00  0.00  0.00
  WWGM2025                2.14   0.00  0.00  0.00  0.00  0.00  0.00  1.00  0.00  0.00
  WWGM2026                1.00   0.00  0.00  0.00  0.92  0.08  0.00  0.00  0.32  0.00
  WWGM2035                1.00   0.00  0.00  0.00  0.00  0.00  0.00  1.00  0.00  0.00
  WWGM2037                1.00   0.00  0.00  0.00  0.02  0.00  0.00  0.98  0.00  0.00
  WWGM2039                1.00   0.00  1.00  0.00  0.00  0.00  0.00  0.00  0.00  0.00
  WWGM2053                2.31   0.04  0.00  0.00  0.00  0.00  0.00  0.96  0.00  0.00
  WWGM2054                1.07   0.00  0.00  0.00  0.00  0.00  0.00  1.00  0.00  0.00
  WWGM2073                1.40   0.49  0.00  0.00  0.00  0.00  0.00  0.51  0.00  0.00
  WWGM2074                3.12   1.00  0.00  0.00  0.00  0.00  0.00  0.00  0.00  0.00
  WWGM2075                1.25   0.01  0.00  0.00  0.00  0.73  0.00  0.26  0.69  0.00
  WWGM2076                1.00   0.01  0.00  0.00  0.00  0.00  0.00  0.99  0.00  0.00
  WWGM2077                1.00   0.00  0.00  0.00  0.18  0.82  0.00  0.00  1.00  0.00
  WWGM2078                1.67   0.00  0.00  0.00  0.00  0.00  1.00  0.00  0.00  0.00
  WWGM2093                1.00   0.00  0.00  0.00  0.99  0.00  0.00  0.01  0.98  0.00
  WWGM2094                1.00   0.00  0.00  0.00  1.00  0.00  0.00  0.00  0.00  0.00
  WWGM2110                1.00   0.00  0.00  0.00  0.41  0.39  0.00  0.20  0.77  0.00
  WWGM2119                1.00   0.01  0.00  0.00  0.99  0.00  0.00  0.00  0.35  0.00
  WWGM2137                1.85   0.00  0.00  0.00  0.99  0.00  0.00  0.00  1.00  0.00
  WWGM2146                1.00   0.00  0.00  0.00  0.95  0.00  0.00  0.05  0.91  0.00
  WWGM2147               16.68   0.00  0.02  0.00  0.00  0.00  0.98  0.00  0.00  0.00
  WWGM2148                9.16   0.00  0.00  0.00  0.00  0.00  1.00  0.00  0.00  0.00
  WWGM2149                1.00   0.00  0.00  0.00  0.00  0.00  0.00  1.00  0.00  0.00
  WWGM2150                4.25   0.00  0.00  0.00  0.00  0.00  0.00  1.00  0.00  0.00
  WWGM2151                1.00   0.00  0.00  0.00  0.00  0.00  0.00  1.00  0.00  0.00
  WWGM2152                1.00   0.00  0.00  0.00  0.95  0.00  0.00  0.05  0.94  0.00
  
  
  *************************
  Conduit Surcharge Summary
  *************************
  
  ----------------------------------------------------------------------------
                                                           Hours        Hours 
                         --------- Hours Full --------   Above Full   Capacity
  Conduit                Both Ends  Upstream  Dnstream   Normal Flow   Limited
  ----------------------------------------------------------------------------
  C-F106                      0.01      0.01     23.20      0.01         0.01
  FM-101_PROVIDENCE           0.01      0.01     22.20     13.43         0.01
  FM-102_RIVERFRONT           0.01      0.01     23.04      6.86         0.01
  WWFM0026                    0.01      0.01     23.29      5.63         0.01
  WWFM0041                    0.01      0.01     22.47      0.01         0.01
  WWFM0042                    0.01      0.01     23.19      0.01         0.01
  WWFM0045                    0.06      0.06      8.92      0.01         0.03
  WWFM0048                    0.01      0.01     20.82      0.01         0.01
  WWGM0177                    0.01      0.01      0.01      0.94         0.01
  WWGM0213                    0.01      0.01      0.01      2.03         0.01
  WWGM0507                    0.01      0.01      0.01      2.43         0.01
  WWGM1320                    0.01      0.01      0.01      0.84         0.01
  WWGM1792                    0.01      0.01      0.01      6.27         0.01
  WWGM1837                    0.01      0.01      0.01      6.27         0.01
  WWGM2053                    0.01      0.01      0.23      0.17         0.01
  WWGM2073                    0.01      0.01      0.90      2.23         0.01
  WWGM2078                    0.01      0.01      0.01     11.69         0.01
  
  
  ***************
  Pumping Summary
  ***************
  
  ---------------------------------------------------------------------------------------------------------
                                                  Min       Avg       Max     Total     Power    % Time Off
                        Percent   Number of      Flow      Flow      Flow    Volume     Usage    Pump Curve
  Pump                 Utilized   Start-Ups       CFS       CFS       CFS  10^6 gal     Kw-hr    Low   High
  ---------------------------------------------------------------------------------------------------------
  PUMP-CHEHAL1            23.78          55      0.00      0.99      1.47     0.152     40.16    0.0    1.3
  PUMP-CREEKSD1            2.46          17      0.00      0.42      0.42     0.007      0.27    0.0   52.0
  PUMP-DAY1                5.42          36      0.00      2.90      2.90     0.101     22.14    0.0    4.4
  PUMP-DAY2                0.00           0      0.00      0.00      0.00     0.000      0.00    0.0    0.0
  PUMP-FERN1              28.26          50      0.00      1.53      1.81     0.280     53.34    0.0    3.0
  PUMP-FERN2               0.00           0      0.00      0.00      0.00     0.000      0.00    0.0    0.0
  PUMP-HWY240_1           50.46          79      0.00      1.85      2.02     0.604     90.50    0.0    0.9
  PUMP-HWY240_2            0.00           0      0.00      0.00      0.00     0.000      0.00    0.0    0.0
  PUMP-PROVIDENCE1        55.96           3      0.00      0.27      0.28     0.096      5.62    0.0    0.0
  PUMP-RIVERFRONT1        38.72          54      0.00      0.68      0.95     0.171     16.60    0.0    0.0
  PUMP-SHER1               0.35           8      0.00      0.83      0.86     0.002      0.04    0.0   55.9
  

  Analysis begun on:  Fri Nov 29 10:49:13 2019
  Analysis ended on:  Fri Nov 29 10:49:24 2019
  Total elapsed time: 00:00:11