
  EPA STORM WATER MANAGEMENT MODEL - VERSION 5.1 (Build 5.1.013)
  --------------------------------------------------------------

  WARNING 04: minimum elevation drop used for Conduit 00_DV037D.1
  WARNING 04: minimum elevation drop used for Conduit 00_DV058E.1
  WARNING 08: elevation drop exceeds length for Conduit 16-40.1
  WARNING 04: minimum elevation drop used for Conduit 30-67.1
  WARNING 04: minimum elevation drop used for Conduit 38-41.1
  WARNING 04: minimum elevation drop used for Conduit 4-14.1
  WARNING 04: minimum elevation drop used for Conduit 49-33.1
  WARNING 04: minimum elevation drop used for Conduit 57-17.1
  WARNING 04: minimum elevation drop used for Conduit 58-27.1
  WARNING 08: elevation drop exceeds length for Conduit 66-42.1
  WARNING 08: elevation drop exceeds length for Conduit 66-42.2
  WARNING 04: minimum elevation drop used for Conduit 83-16.2
  WARNING 04: minimum elevation drop used for Conduit BUS0590-0000.1
  WARNING 04: minimum elevation drop used for Conduit EUB0640-0105.2
  WARNING 04: minimum elevation drop used for Conduit KNT0510-0230.2
  WARNING 04: minimum elevation drop used for Conduit KNT0740-0135.1
  WARNING 04: minimum elevation drop used for Conduit KNT0840-0000.1
  WARNING 04: minimum elevation drop used for Conduit KNT0850-0040.1
  WARNING 04: minimum elevation drop used for Conduit KNT0960-0000.1
  WARNING 04: minimum elevation drop used for Conduit S3-35A1.2
  WARNING 04: minimum elevation drop used for Conduit S3-35B1.1
  WARNING 04: minimum elevation drop used for Conduit S42-27A1.1
  WARNING 04: minimum elevation drop used for Conduit S42-27B1.2
  WARNING 08: elevation drop exceeds length for Conduit S66-13B2.2
  WARNING 08: elevation drop exceeds length for Conduit S66-42A2.2
  WARNING 08: elevation drop exceeds length for Conduit S66-42B2.1
  
  **********************           Volume        Volume
  Rainfall Dependent I/I        acre-feet      10^6 gal
  **********************        ---------     ---------
  Sewershed Rainfall ......       340.621       110.996
  RDII Produced ...........         9.703         3.162
  RDII Ratio ..............         0.028
  
  
  *********************************************************
  NOTE: The summary statistics displayed in this report are
  based on results found at every computational time step,  
  not just on results from each reporting time step.
  *********************************************************
  
  ****************
  Analysis Options
  ****************
  Flow Units ............... MGD
  Process Models:
    Rainfall/Runoff ........ YES
    RDII ................... YES
    Snowmelt ............... NO
    Groundwater ............ NO
    Flow Routing ........... YES
    Ponding Allowed ........ NO
    Water Quality .......... NO
  Infiltration Method ...... HORTON
  Flow Routing Method ...... DYNWAVE
  Surcharge Method ......... EXTRAN
  Starting Date ............ 02/17/2005 00:00:00
  Ending Date .............. 02/19/2005 00:00:00
  Antecedent Dry Days ...... 5.0
  Report Time Step ......... 00:15:00
  Wet Time Step ............ 00:15:00
  Dry Time Step ............ 00:15:00
  Routing Time Step ........ 10.00 sec
  Variable Time Step ....... YES
  Maximum Trials ........... 8
  Number of Threads ........ 1
  Head Tolerance ........... 0.005000 ft
  
  
  **************************        Volume         Depth
  Runoff Quantity Continuity     acre-feet        inches
  **************************     ---------       -------
  Total Precipitation ......         0.005         0.165
  Evaporation Loss .........         0.000         0.000
  Infiltration Loss ........         0.005         0.165
  Surface Runoff ...........         0.000         0.000
  Final Storage ............         0.000         0.000
  Continuity Error (%) .....         0.000
  
  
  **************************        Volume        Volume
  Flow Routing Continuity        acre-feet      10^6 gal
  **************************     ---------     ---------
  Dry Weather Inflow .......        96.128        31.325
  Wet Weather Inflow .......         0.000         0.000
  Groundwater Inflow .......         0.000         0.000
  RDII Inflow ..............         9.586         3.124
  External Inflow ..........         0.000         0.000
  External Outflow .........        99.724        32.497
  Flooding Loss ............         0.000         0.000
  Evaporation Loss .........         0.000         0.000
  Exfiltration Loss ........         0.000         0.000
  Initial Stored Volume ....         0.000         0.000
  Final Stored Volume ......         5.596         1.823
  Continuity Error (%) .....         0.373
  
  
  *************************
  Highest Continuity Errors
  *************************
  Node 33-13 (66.97%)
  Node 4-15 (62.30%)
  Node 00_DV036A (39.67%)
  Node 44-15 (26.69%)
  Node 64-15 (14.08%)
  
  
  ***************************
  Time-Step Critical Elements
  ***************************
  Link 49-33.1 (62.70%)
  Link MLR0620-0000.1 (18.41%)
  Link 58-17.1 (1.54%)
  
  
  ********************************
  Highest Flow Instability Indexes
  ********************************
  Link 59-17.2 (9)
  Link 43-17.1 (9)
  Link MLR0500-0000.1 (7)
  Link MLR0495-0000.1 (7)
  Link 58-17.1 (6)
  
  
  *************************
  Routing Time Step Summary
  *************************
  Minimum Time Step           :     0.58 sec
  Average Time Step           :     7.30 sec
  Maximum Time Step           :    10.00 sec
  Percent in Steady State     :    -0.00
  Average Iterations per Step :     2.17
  Percent Not Converging      :     1.74
  
  
  ***************************
  Subcatchment Runoff Summary
  ***************************
  
  ------------------------------------------------------------------------------------------------------------------------------
                            Total      Total      Total      Total     Imperv       Perv      Total       Total     Peak  Runoff
                           Precip      Runon       Evap      Infil     Runoff     Runoff     Runoff      Runoff   Runoff   Coeff
  Subcatchment                 in         in         in         in         in         in         in    10^6 gal      MGD
  ------------------------------------------------------------------------------------------------------------------------------
  FULL_001                   0.17       0.00       0.00       0.17       0.00       0.00       0.00        0.00     0.00   0.000
  FULL_002                   0.17       0.00       0.00       0.17       0.00       0.00       0.00        0.00     0.00   0.000
  FULL_003                   0.17       0.00       0.00       0.17       0.00       0.00       0.00        0.00     0.00   0.000
  FULL_004                   0.17       0.00       0.00       0.17       0.00       0.00       0.00        0.00     0.00   0.000
  FULL_005                   0.17       0.00       0.00       0.17       0.00       0.00       0.00        0.00     0.00   0.000
  FULL_006                   0.17       0.00       0.00       0.17       0.00       0.00       0.00        0.00     0.00   0.000
  FULL_007                   0.17       0.00       0.00       0.17       0.00       0.00       0.00        0.00     0.00   0.000
  FULL_008                   0.17       0.00       0.00       0.17       0.00       0.00       0.00        0.00     0.00   0.000
  FULL_009                   0.17       0.00       0.00       0.17       0.00       0.00       0.00        0.00     0.00   0.000
  FULL_010                   0.17       0.00       0.00       0.17       0.00       0.00       0.00        0.00     0.00   0.000
  FULL_011                   0.17       0.00       0.00       0.17       0.00       0.00       0.00        0.00     0.00   0.000
  FULL_012                   0.17       0.00       0.00       0.17       0.00       0.00       0.00        0.00     0.00   0.000
  FULL_013                   0.17       0.00       0.00       0.17       0.00       0.00       0.00        0.00     0.00   0.000
  FULL_014                   0.17       0.00       0.00       0.17       0.00       0.00       0.00        0.00     0.00   0.000
  FULL_015                   0.17       0.00       0.00       0.17       0.00       0.00       0.00        0.00     0.00   0.000
  FULL_016                   0.17       0.00       0.00       0.17       0.00       0.00       0.00        0.00     0.00   0.000
  FULL_017                   0.17       0.00       0.00       0.17       0.00       0.00       0.00        0.00     0.00   0.000
  FULL_018                   0.17       0.00       0.00       0.17       0.00       0.00       0.00        0.00     0.00   0.000
  FULL_019                   0.17       0.00       0.00       0.17       0.00       0.00       0.00        0.00     0.00   0.000
  FULL_020                   0.17       0.00       0.00       0.17       0.00       0.00       0.00        0.00     0.00   0.000
  FULL_021                   0.17       0.00       0.00       0.17       0.00       0.00       0.00        0.00     0.00   0.000
  FULL_022                   0.17       0.00       0.00       0.17       0.00       0.00       0.00        0.00     0.00   0.000
  FULL_023                   0.17       0.00       0.00       0.17       0.00       0.00       0.00        0.00     0.00   0.000
  FULL_024                   0.17       0.00       0.00       0.17       0.00       0.00       0.00        0.00     0.00   0.000
  FULL_025                   0.17       0.00       0.00       0.17       0.00       0.00       0.00        0.00     0.00   0.000
  FULL_026                   0.17       0.00       0.00       0.17       0.00       0.00       0.00        0.00     0.00   0.000
  FULL_027                   0.17       0.00       0.00       0.17       0.00       0.00       0.00        0.00     0.00   0.000
  FULL_028                   0.17       0.00       0.00       0.17       0.00       0.00       0.00        0.00     0.00   0.000
  FULL_029                   0.17       0.00       0.00       0.17       0.00       0.00       0.00        0.00     0.00   0.000
  FULL_030                   0.17       0.00       0.00       0.17       0.00       0.00       0.00        0.00     0.00   0.000
  FULL_031                   0.17       0.00       0.00       0.17       0.00       0.00       0.00        0.00     0.00   0.000
  FULL_032                   0.17       0.00       0.00       0.17       0.00       0.00       0.00        0.00     0.00   0.000
  FULL_033                   0.17       0.00       0.00       0.17       0.00       0.00       0.00        0.00     0.00   0.000
  FULL_034                   0.17       0.00       0.00       0.17       0.00       0.00       0.00        0.00     0.00   0.000
  FULL_035                   0.17       0.00       0.00       0.17       0.00       0.00       0.00        0.00     0.00   0.000
  FULL_036                   0.17       0.00       0.00       0.17       0.00       0.00       0.00        0.00     0.00   0.000
  FULL_037                   0.17       0.00       0.00       0.17       0.00       0.00       0.00        0.00     0.00   0.000
  FULL_038                   0.17       0.00       0.00       0.17       0.00       0.00       0.00        0.00     0.00   0.000
  FULL_039                   0.17       0.00       0.00       0.17       0.00       0.00       0.00        0.00     0.00   0.000
  FULL_040                   0.17       0.00       0.00       0.17       0.00       0.00       0.00        0.00     0.00   0.000
  FULL_041                   0.17       0.00       0.00       0.17       0.00       0.00       0.00        0.00     0.00   0.000
  FULL_042                   0.17       0.00       0.00       0.17       0.00       0.00       0.00        0.00     0.00   0.000
  FULL_043                   0.17       0.00       0.00       0.17       0.00       0.00       0.00        0.00     0.00   0.000
  FULL_044                   0.17       0.00       0.00       0.17       0.00       0.00       0.00        0.00     0.00   0.000
  FULL_045                   0.17       0.00       0.00       0.17       0.00       0.00       0.00        0.00     0.00   0.000
  FULL_046                   0.17       0.00       0.00       0.17       0.00       0.00       0.00        0.00     0.00   0.000
  FULL_047                   0.17       0.00       0.00       0.17       0.00       0.00       0.00        0.00     0.00   0.000
  FULL_048                   0.17       0.00       0.00       0.17       0.00       0.00       0.00        0.00     0.00   0.000
  FULL_049                   0.17       0.00       0.00       0.17       0.00       0.00       0.00        0.00     0.00   0.000
  FULL_050                   0.17       0.00       0.00       0.17       0.00       0.00       0.00        0.00     0.00   0.000
  FULL_051                   0.17       0.00       0.00       0.17       0.00       0.00       0.00        0.00     0.00   0.000
  FULL_052                   0.17       0.00       0.00       0.17       0.00       0.00       0.00        0.00     0.00   0.000
  FULL_053                   0.17       0.00       0.00       0.17       0.00       0.00       0.00        0.00     0.00   0.000
  FULL_054                   0.17       0.00       0.00       0.17       0.00       0.00       0.00        0.00     0.00   0.000
  FULL_055                   0.17       0.00       0.00       0.17       0.00       0.00       0.00        0.00     0.00   0.000
  FULL_056                   0.17       0.00       0.00       0.17       0.00       0.00       0.00        0.00     0.00   0.000
  FULL_057                   0.17       0.00       0.00       0.17       0.00       0.00       0.00        0.00     0.00   0.000
  FULL_058                   0.17       0.00       0.00       0.17       0.00       0.00       0.00        0.00     0.00   0.000
  FULL_059                   0.17       0.00       0.00       0.17       0.00       0.00       0.00        0.00     0.00   0.000
  FULL_060                   0.17       0.00       0.00       0.17       0.00       0.00       0.00        0.00     0.00   0.000
  FULL_061                   0.17       0.00       0.00       0.17       0.00       0.00       0.00        0.00     0.00   0.000
  FULL_062                   0.17       0.00       0.00       0.17       0.00       0.00       0.00        0.00     0.00   0.000
  FULL_063                   0.17       0.00       0.00       0.17       0.00       0.00       0.00        0.00     0.00   0.000
  FULL_064                   0.17       0.00       0.00       0.17       0.00       0.00       0.00        0.00     0.00   0.000
  FULL_065                   0.17       0.00       0.00       0.17       0.00       0.00       0.00        0.00     0.00   0.000
  FULL_066                   0.17       0.00       0.00       0.17       0.00       0.00       0.00        0.00     0.00   0.000
  FULL_067                   0.17       0.00       0.00       0.17       0.00       0.00       0.00        0.00     0.00   0.000
  FULL_068                   0.17       0.00       0.00       0.17       0.00       0.00       0.00        0.00     0.00   0.000
  FULL_069                   0.17       0.00       0.00       0.17       0.00       0.00       0.00        0.00     0.00   0.000
  FULL_070                   0.17       0.00       0.00       0.17       0.00       0.00       0.00        0.00     0.00   0.000
  FULL_071                   0.17       0.00       0.00       0.17       0.00       0.00       0.00        0.00     0.00   0.000
  FULL_072                   0.17       0.00       0.00       0.17       0.00       0.00       0.00        0.00     0.00   0.000
  FULL_073                   0.17       0.00       0.00       0.17       0.00       0.00       0.00        0.00     0.00   0.000
  FULL_074                   0.17       0.00       0.00       0.17       0.00       0.00       0.00        0.00     0.00   0.000
  FULL_075                   0.17       0.00       0.00       0.17       0.00       0.00       0.00        0.00     0.00   0.000
  FULL_076                   0.17       0.00       0.00       0.17       0.00       0.00       0.00        0.00     0.00   0.000
  FULL_077                   0.17       0.00       0.00       0.17       0.00       0.00       0.00        0.00     0.00   0.000
  FULL_078                   0.17       0.00       0.00       0.17       0.00       0.00       0.00        0.00     0.00   0.000
  FULL_079                   0.17       0.00       0.00       0.17       0.00       0.00       0.00        0.00     0.00   0.000
  FULL_080                   0.17       0.00       0.00       0.17       0.00       0.00       0.00        0.00     0.00   0.000
  FULL_081                   0.17       0.00       0.00       0.17       0.00       0.00       0.00        0.00     0.00   0.000
  FULL_082                   0.17       0.00       0.00       0.17       0.00       0.00       0.00        0.00     0.00   0.000
  FULL_083                   0.17       0.00       0.00       0.17       0.00       0.00       0.00        0.00     0.00   0.000
  FULL_084                   0.17       0.00       0.00       0.17       0.00       0.00       0.00        0.00     0.00   0.000
  FULL_085                   0.17       0.00       0.00       0.17       0.00       0.00       0.00        0.00     0.00   0.000
  FULL_086                   0.17       0.00       0.00       0.17       0.00       0.00       0.00        0.00     0.00   0.000
  FULL_087                   0.17       0.00       0.00       0.17       0.00       0.00       0.00        0.00     0.00   0.000
  FULL_088                   0.17       0.00       0.00       0.17       0.00       0.00       0.00        0.00     0.00   0.000
  FULL_089                   0.17       0.00       0.00       0.17       0.00       0.00       0.00        0.00     0.00   0.000
  FULL_090                   0.17       0.00       0.00       0.17       0.00       0.00       0.00        0.00     0.00   0.000
  FULL_091                   0.17       0.00       0.00       0.17       0.00       0.00       0.00        0.00     0.00   0.000
  FULL_092                   0.17       0.00       0.00       0.17       0.00       0.00       0.00        0.00     0.00   0.000
  FULL_093                   0.17       0.00       0.00       0.17       0.00       0.00       0.00        0.00     0.00   0.000
  FULL_094                   0.17       0.00       0.00       0.17       0.00       0.00       0.00        0.00     0.00   0.000
  FULL_095                   0.17       0.00       0.00       0.17       0.00       0.00       0.00        0.00     0.00   0.000
  FULL_096                   0.17       0.00       0.00       0.17       0.00       0.00       0.00        0.00     0.00   0.000
  FULL_097                   0.17       0.00       0.00       0.17       0.00       0.00       0.00        0.00     0.00   0.000
  FULL_098                   0.17       0.00       0.00       0.17       0.00       0.00       0.00        0.00     0.00   0.000
  FULL_099                   0.17       0.00       0.00       0.17       0.00       0.00       0.00        0.00     0.00   0.000
  FULL_100                   0.17       0.00       0.00       0.17       0.00       0.00       0.00        0.00     0.00   0.000
  FULL_101                   0.17       0.00       0.00       0.17       0.00       0.00       0.00        0.00     0.00   0.000
  FULL_102                   0.17       0.00       0.00       0.17       0.00       0.00       0.00        0.00     0.00   0.000
  FULL_103                   0.17       0.00       0.00       0.17       0.00       0.00       0.00        0.00     0.00   0.000
  FULL_104                   0.17       0.00       0.00       0.17       0.00       0.00       0.00        0.00     0.00   0.000
  FULL_105                   0.17       0.00       0.00       0.17       0.00       0.00       0.00        0.00     0.00   0.000
  FULL_106                   0.17       0.00       0.00       0.17       0.00       0.00       0.00        0.00     0.00   0.000
  FULL_107                   0.17       0.00       0.00       0.17       0.00       0.00       0.00        0.00     0.00   0.000
  FULL_108                   0.17       0.00       0.00       0.17       0.00       0.00       0.00        0.00     0.00   0.000
  FULL_109                   0.17       0.00       0.00       0.17       0.00       0.00       0.00        0.00     0.00   0.000
  FULL_110                   0.17       0.00       0.00       0.17       0.00       0.00       0.00        0.00     0.00   0.000
  FULL_111                   0.17       0.00       0.00       0.17       0.00       0.00       0.00        0.00     0.00   0.000
  FULL_112                   0.17       0.00       0.00       0.17       0.00       0.00       0.00        0.00     0.00   0.000
  FULL_113                   0.17       0.00       0.00       0.17       0.00       0.00       0.00        0.00     0.00   0.000
  FULL_114                   0.17       0.00       0.00       0.17       0.00       0.00       0.00        0.00     0.00   0.000
  FULL_115                   0.17       0.00       0.00       0.17       0.00       0.00       0.00        0.00     0.00   0.000
  FULL_116                   0.17       0.00       0.00       0.17       0.00       0.00       0.00        0.00     0.00   0.000
  FULL_117                   0.17       0.00       0.00       0.17       0.00       0.00       0.00        0.00     0.00   0.000
  FULL_118                   0.17       0.00       0.00       0.17       0.00       0.00       0.00        0.00     0.00   0.000
  FULL_119                   0.17       0.00       0.00       0.17       0.00       0.00       0.00        0.00     0.00   0.000
  FULL_120                   0.17       0.00       0.00       0.17       0.00       0.00       0.00        0.00     0.00   0.000
  FULL_121                   0.17       0.00       0.00       0.17       0.00       0.00       0.00        0.00     0.00   0.000
  FULL_122                   0.17       0.00       0.00       0.17       0.00       0.00       0.00        0.00     0.00   0.000
  FULL_123                   0.17       0.00       0.00       0.17       0.00       0.00       0.00        0.00     0.00   0.000
  FULL_124                   0.17       0.00       0.00       0.17       0.00       0.00       0.00        0.00     0.00   0.000
  FULL_125                   0.17       0.00       0.00       0.17       0.00       0.00       0.00        0.00     0.00   0.000
  FULL_126                   0.17       0.00       0.00       0.17       0.00       0.00       0.00        0.00     0.00   0.000
  FULL_127                   0.17       0.00       0.00       0.17       0.00       0.00       0.00        0.00     0.00   0.000
  FULL_128                   0.17       0.00       0.00       0.17       0.00       0.00       0.00        0.00     0.00   0.000
  FULL_129                   0.17       0.00       0.00       0.17       0.00       0.00       0.00        0.00     0.00   0.000
  FULL_130                   0.17       0.00       0.00       0.17       0.00       0.00       0.00        0.00     0.00   0.000
  FULL_131                   0.17       0.00       0.00       0.17       0.00       0.00       0.00        0.00     0.00   0.000
  FULL_132                   0.17       0.00       0.00       0.17       0.00       0.00       0.00        0.00     0.00   0.000
  FULL_133                   0.17       0.00       0.00       0.17       0.00       0.00       0.00        0.00     0.00   0.000
  FULL_134                   0.17       0.00       0.00       0.17       0.00       0.00       0.00        0.00     0.00   0.000
  FULL_135                   0.17       0.00       0.00       0.17       0.00       0.00       0.00        0.00     0.00   0.000
  FULL_136                   0.17       0.00       0.00       0.17       0.00       0.00       0.00        0.00     0.00   0.000
  FULL_137                   0.17       0.00       0.00       0.17       0.00       0.00       0.00        0.00     0.00   0.000
  FULL_138                   0.17       0.00       0.00       0.17       0.00       0.00       0.00        0.00     0.00   0.000
  FULL_139                   0.17       0.00       0.00       0.17       0.00       0.00       0.00        0.00     0.00   0.000
  FULL_140                   0.17       0.00       0.00       0.17       0.00       0.00       0.00        0.00     0.00   0.000
  FULL_141                   0.17       0.00       0.00       0.17       0.00       0.00       0.00        0.00     0.00   0.000
  FULL_142                   0.17       0.00       0.00       0.17       0.00       0.00       0.00        0.00     0.00   0.000
  FULL_143                   0.17       0.00       0.00       0.17       0.00       0.00       0.00        0.00     0.00   0.000
  FULL_144                   0.17       0.00       0.00       0.17       0.00       0.00       0.00        0.00     0.00   0.000
  FULL_145                   0.17       0.00       0.00       0.17       0.00       0.00       0.00        0.00     0.00   0.000
  FULL_146                   0.17       0.00       0.00       0.17       0.00       0.00       0.00        0.00     0.00   0.000
  FULL_147                   0.17       0.00       0.00       0.17       0.00       0.00       0.00        0.00     0.00   0.000
  FULL_148                   0.17       0.00       0.00       0.17       0.00       0.00       0.00        0.00     0.00   0.000
  FULL_149                   0.17       0.00       0.00       0.17       0.00       0.00       0.00        0.00     0.00   0.000
  FULL_150                   0.17       0.00       0.00       0.17       0.00       0.00       0.00        0.00     0.00   0.000
  FULL_151                   0.17       0.00       0.00       0.17       0.00       0.00       0.00        0.00     0.00   0.000
  FULL_152                   0.17       0.00       0.00       0.17       0.00       0.00       0.00        0.00     0.00   0.000
  FULL_153                   0.17       0.00       0.00       0.17       0.00       0.00       0.00        0.00     0.00   0.000
  FULL_154                   0.17       0.00       0.00       0.17       0.00       0.00       0.00        0.00     0.00   0.000
  FULL_155                   0.17       0.00       0.00       0.17       0.00       0.00       0.00        0.00     0.00   0.000
  FULL_156                   0.17       0.00       0.00       0.17       0.00       0.00       0.00        0.00     0.00   0.000
  FULL_157                   0.17       0.00       0.00       0.17       0.00       0.00       0.00        0.00     0.00   0.000
  FULL_158                   0.17       0.00       0.00       0.17       0.00       0.00       0.00        0.00     0.00   0.000
  FULL_159                   0.17       0.00       0.00       0.17       0.00       0.00       0.00        0.00     0.00   0.000
  FULL_160                   0.17       0.00       0.00       0.17       0.00       0.00       0.00        0.00     0.00   0.000
  FULL_161                   0.17       0.00       0.00       0.17       0.00       0.00       0.00        0.00     0.00   0.000
  FULL_162                   0.17       0.00       0.00       0.17       0.00       0.00       0.00        0.00     0.00   0.000
  FULL_163                   0.17       0.00       0.00       0.17       0.00       0.00       0.00        0.00     0.00   0.000
  FULL_164                   0.17       0.00       0.00       0.17       0.00       0.00       0.00        0.00     0.00   0.000
  FULL_165                   0.17       0.00       0.00       0.17       0.00       0.00       0.00        0.00     0.00   0.000
  FULL_166                   0.17       0.00       0.00       0.17       0.00       0.00       0.00        0.00     0.00   0.000
  FULL_167                   0.17       0.00       0.00       0.17       0.00       0.00       0.00        0.00     0.00   0.000
  FULL_168                   0.17       0.00       0.00       0.17       0.00       0.00       0.00        0.00     0.00   0.000
  FULL_170                   0.17       0.00       0.00       0.17       0.00       0.00       0.00        0.00     0.00   0.000
  FULL_171                   0.17       0.00       0.00       0.17       0.00       0.00       0.00        0.00     0.00   0.000
  FULL_172                   0.17       0.00       0.00       0.17       0.00       0.00       0.00        0.00     0.00   0.000
  FULL_173                   0.17       0.00       0.00       0.17       0.00       0.00       0.00        0.00     0.00   0.000
  FULL_174                   0.17       0.00       0.00       0.17       0.00       0.00       0.00        0.00     0.00   0.000
  FULL_175                   0.17       0.00       0.00       0.17       0.00       0.00       0.00        0.00     0.00   0.000
  FULL_176                   0.17       0.00       0.00       0.17       0.00       0.00       0.00        0.00     0.00   0.000
  FULL_177                   0.17       0.00       0.00       0.17       0.00       0.00       0.00        0.00     0.00   0.000
  FULL_178                   0.17       0.00       0.00       0.17       0.00       0.00       0.00        0.00     0.00   0.000
  FULL_179                   0.17       0.00       0.00       0.17       0.00       0.00       0.00        0.00     0.00   0.000
  FULL_180                   0.17       0.00       0.00       0.17       0.00       0.00       0.00        0.00     0.00   0.000
  FULL_181                   0.17       0.00       0.00       0.17       0.00       0.00       0.00        0.00     0.00   0.000
  FULL_182                   0.17       0.00       0.00       0.17       0.00       0.00       0.00        0.00     0.00   0.000
  FULL_183                   0.17       0.00       0.00       0.17       0.00       0.00       0.00        0.00     0.00   0.000
  FULL_184                   0.17       0.00       0.00       0.17       0.00       0.00       0.00        0.00     0.00   0.000
  FULL_185                   0.17       0.00       0.00       0.17       0.00       0.00       0.00        0.00     0.00   0.000
  FULL_186                   0.17       0.00       0.00       0.17       0.00       0.00       0.00        0.00     0.00   0.000
  FULL_187                   0.17       0.00       0.00       0.17       0.00       0.00       0.00        0.00     0.00   0.000
  FULL_188                   0.17       0.00       0.00       0.17       0.00       0.00       0.00        0.00     0.00   0.000
  FULL_189                   0.17       0.00       0.00       0.17       0.00       0.00       0.00        0.00     0.00   0.000
  FULL_190                   0.17       0.00       0.00       0.17       0.00       0.00       0.00        0.00     0.00   0.000
  FULL_191                   0.17       0.00       0.00       0.17       0.00       0.00       0.00        0.00     0.00   0.000
  FULL_192                   0.17       0.00       0.00       0.17       0.00       0.00       0.00        0.00     0.00   0.000
  FULL_193                   0.17       0.00       0.00       0.17       0.00       0.00       0.00        0.00     0.00   0.000
  FULL_194                   0.17       0.00       0.00       0.17       0.00       0.00       0.00        0.00     0.00   0.000
  FULL_195                   0.17       0.00       0.00       0.17       0.00       0.00       0.00        0.00     0.00   0.000
  FULL_196                   0.17       0.00       0.00       0.17       0.00       0.00       0.00        0.00     0.00   0.000
  FULL_197                   0.17       0.00       0.00       0.17       0.00       0.00       0.00        0.00     0.00   0.000
  FULL_198                   0.17       0.00       0.00       0.17       0.00       0.00       0.00        0.00     0.00   0.000
  FULL_199                   0.17       0.00       0.00       0.17       0.00       0.00       0.00        0.00     0.00   0.000
  FULL_200                   0.17       0.00       0.00       0.17       0.00       0.00       0.00        0.00     0.00   0.000
  FULL_201                   0.17       0.00       0.00       0.17       0.00       0.00       0.00        0.00     0.00   0.000
  FULL_202                   0.17       0.00       0.00       0.17       0.00       0.00       0.00        0.00     0.00   0.000
  FULL_203                   0.17       0.00       0.00       0.17       0.00       0.00       0.00        0.00     0.00   0.000
  FULL_204                   0.17       0.00       0.00       0.17       0.00       0.00       0.00        0.00     0.00   0.000
  FULL_205                   0.17       0.00       0.00       0.17       0.00       0.00       0.00        0.00     0.00   0.000
  FULL_206                   0.17       0.00       0.00       0.17       0.00       0.00       0.00        0.00     0.00   0.000
  FULL_207                   0.17       0.00       0.00       0.17       0.00       0.00       0.00        0.00     0.00   0.000
  FULL_208                   0.17       0.00       0.00       0.17       0.00       0.00       0.00        0.00     0.00   0.000
  FULL_209                   0.17       0.00       0.00       0.17       0.00       0.00       0.00        0.00     0.00   0.000
  FULL_210                   0.17       0.00       0.00       0.17       0.00       0.00       0.00        0.00     0.00   0.000
  FULL_211                   0.17       0.00       0.00       0.17       0.00       0.00       0.00        0.00     0.00   0.000
  FULL_212                   0.17       0.00       0.00       0.17       0.00       0.00       0.00        0.00     0.00   0.000
  FULL_213                   0.17       0.00       0.00       0.17       0.00       0.00       0.00        0.00     0.00   0.000
  FULL_214                   0.17       0.00       0.00       0.17       0.00       0.00       0.00        0.00     0.00   0.000
  FULL_215                   0.17       0.00       0.00       0.17       0.00       0.00       0.00        0.00     0.00   0.000
  FULL_216                   0.17       0.00       0.00       0.17       0.00       0.00       0.00        0.00     0.00   0.000
  FULL_217                   0.17       0.00       0.00       0.17       0.00       0.00       0.00        0.00     0.00   0.000
  FULL_218                   0.17       0.00       0.00       0.17       0.00       0.00       0.00        0.00     0.00   0.000
  FULL_219                   0.17       0.00       0.00       0.17       0.00       0.00       0.00        0.00     0.00   0.000
  FULL_220                   0.17       0.00       0.00       0.17       0.00       0.00       0.00        0.00     0.00   0.000
  FULL_221                   0.17       0.00       0.00       0.17       0.00       0.00       0.00        0.00     0.00   0.000
  FULL_223                   0.17       0.00       0.00       0.17       0.00       0.00       0.00        0.00     0.00   0.000
  FULL_224                   0.17       0.00       0.00       0.17       0.00       0.00       0.00        0.00     0.00   0.000
  FULL_225                   0.17       0.00       0.00       0.17       0.00       0.00       0.00        0.00     0.00   0.000
  FULL_226                   0.17       0.00       0.00       0.17       0.00       0.00       0.00        0.00     0.00   0.000
  FULL_227                   0.17       0.00       0.00       0.17       0.00       0.00       0.00        0.00     0.00   0.000
  FULL_228                   0.17       0.00       0.00       0.17       0.00       0.00       0.00        0.00     0.00   0.000
  FULL_229                   0.17       0.00       0.00       0.17       0.00       0.00       0.00        0.00     0.00   0.000
  FULL_230                   0.17       0.00       0.00       0.17       0.00       0.00       0.00        0.00     0.00   0.000
  FULL_231                   0.17       0.00       0.00       0.17       0.00       0.00       0.00        0.00     0.00   0.000
  FULL_232                   0.17       0.00       0.00       0.17       0.00       0.00       0.00        0.00     0.00   0.000
  FULL_233                   0.17       0.00       0.00       0.17       0.00       0.00       0.00        0.00     0.00   0.000
  FULL_234                   0.17       0.00       0.00       0.17       0.00       0.00       0.00        0.00     0.00   0.000
  FULL_235                   0.17       0.00       0.00       0.17       0.00       0.00       0.00        0.00     0.00   0.000
  FULL_236                   0.17       0.00       0.00       0.17       0.00       0.00       0.00        0.00     0.00   0.000
  FULL_237                   0.17       0.00       0.00       0.17       0.00       0.00       0.00        0.00     0.00   0.000
  FULL_238                   0.17       0.00       0.00       0.17       0.00       0.00       0.00        0.00     0.00   0.000
  FULL_239                   0.17       0.00       0.00       0.17       0.00       0.00       0.00        0.00     0.00   0.000
  FULL_240                   0.17       0.00       0.00       0.17       0.00       0.00       0.00        0.00     0.00   0.000
  FULL_241                   0.17       0.00       0.00       0.17       0.00       0.00       0.00        0.00     0.00   0.000
  FULL_242                   0.17       0.00       0.00       0.17       0.00       0.00       0.00        0.00     0.00   0.000
  FULL_243                   0.17       0.00       0.00       0.17       0.00       0.00       0.00        0.00     0.00   0.000
  FULL_244                   0.17       0.00       0.00       0.17       0.00       0.00       0.00        0.00     0.00   0.000
  FULL_245                   0.17       0.00       0.00       0.17       0.00       0.00       0.00        0.00     0.00   0.000
  FULL_246                   0.17       0.00       0.00       0.17       0.00       0.00       0.00        0.00     0.00   0.000
  FULL_247                   0.17       0.00       0.00       0.17       0.00       0.00       0.00        0.00     0.00   0.000
  FULL_248                   0.17       0.00       0.00       0.17       0.00       0.00       0.00        0.00     0.00   0.000
  FULL_249                   0.17       0.00       0.00       0.17       0.00       0.00       0.00        0.00     0.00   0.000
  FULL_250                   0.17       0.00       0.00       0.17       0.00       0.00       0.00        0.00     0.00   0.000
  FULL_251                   0.17       0.00       0.00       0.17       0.00       0.00       0.00        0.00     0.00   0.000
  FULL_252                   0.17       0.00       0.00       0.17       0.00       0.00       0.00        0.00     0.00   0.000
  FULL_253                   0.17       0.00       0.00       0.17       0.00       0.00       0.00        0.00     0.00   0.000
  FULL_254                   0.17       0.00       0.00       0.17       0.00       0.00       0.00        0.00     0.00   0.000
  FULL_255                   0.17       0.00       0.00       0.17       0.00       0.00       0.00        0.00     0.00   0.000
  FULL_256                   0.17       0.00       0.00       0.17       0.00       0.00       0.00        0.00     0.00   0.000
  FULL_257                   0.17       0.00       0.00       0.17       0.00       0.00       0.00        0.00     0.00   0.000
  FULL_258                   0.17       0.00       0.00       0.17       0.00       0.00       0.00        0.00     0.00   0.000
  FULL_259                   0.17       0.00       0.00       0.17       0.00       0.00       0.00        0.00     0.00   0.000
  FULL_260                   0.17       0.00       0.00       0.17       0.00       0.00       0.00        0.00     0.00   0.000
  FULL_261                   0.17       0.00       0.00       0.17       0.00       0.00       0.00        0.00     0.00   0.000
  FULL_262                   0.17       0.00       0.00       0.17       0.00       0.00       0.00        0.00     0.00   0.000
  FULL_263                   0.17       0.00       0.00       0.17       0.00       0.00       0.00        0.00     0.00   0.000
  FULL_264                   0.17       0.00       0.00       0.17       0.00       0.00       0.00        0.00     0.00   0.000
  FULL_265                   0.17       0.00       0.00       0.17       0.00       0.00       0.00        0.00     0.00   0.000
  FULL_266                   0.17       0.00       0.00       0.17       0.00       0.00       0.00        0.00     0.00   0.000
  FULL_267                   0.17       0.00       0.00       0.17       0.00       0.00       0.00        0.00     0.00   0.000
  FULL_268                   0.17       0.00       0.00       0.17       0.00       0.00       0.00        0.00     0.00   0.000
  FULL_269                   0.17       0.00       0.00       0.17       0.00       0.00       0.00        0.00     0.00   0.000
  FULL_270                   0.17       0.00       0.00       0.17       0.00       0.00       0.00        0.00     0.00   0.000
  FULL_271                   0.17       0.00       0.00       0.17       0.00       0.00       0.00        0.00     0.00   0.000
  FULL_272                   0.17       0.00       0.00       0.17       0.00       0.00       0.00        0.00     0.00   0.000
  FULL_273                   0.17       0.00       0.00       0.17       0.00       0.00       0.00        0.00     0.00   0.000
  FULL_274                   0.17       0.00       0.00       0.17       0.00       0.00       0.00        0.00     0.00   0.000
  FULL_275                   0.17       0.00       0.00       0.17       0.00       0.00       0.00        0.00     0.00   0.000
  FULL_276                   0.17       0.00       0.00       0.17       0.00       0.00       0.00        0.00     0.00   0.000
  FULL_277                   0.17       0.00       0.00       0.17       0.00       0.00       0.00        0.00     0.00   0.000
  FULL_278                   0.17       0.00       0.00       0.17       0.00       0.00       0.00        0.00     0.00   0.000
  FULL_279                   0.17       0.00       0.00       0.17       0.00       0.00       0.00        0.00     0.00   0.000
  FULL_280                   0.17       0.00       0.00       0.17       0.00       0.00       0.00        0.00     0.00   0.000
  FULL_281                   0.17       0.00       0.00       0.17       0.00       0.00       0.00        0.00     0.00   0.000
  FULL_282                   0.17       0.00       0.00       0.17       0.00       0.00       0.00        0.00     0.00   0.000
  FULL_283                   0.17       0.00       0.00       0.17       0.00       0.00       0.00        0.00     0.00   0.000
  FULL_284                   0.17       0.00       0.00       0.17       0.00       0.00       0.00        0.00     0.00   0.000
  FULL_285                   0.17       0.00       0.00       0.17       0.00       0.00       0.00        0.00     0.00   0.000
  FULL_286                   0.17       0.00       0.00       0.17       0.00       0.00       0.00        0.00     0.00   0.000
  FULL_287                   0.17       0.00       0.00       0.17       0.00       0.00       0.00        0.00     0.00   0.000
  FULL_289                   0.17       0.00       0.00       0.17       0.00       0.00       0.00        0.00     0.00   0.000
  FULL_290                   0.17       0.00       0.00       0.17       0.00       0.00       0.00        0.00     0.00   0.000
  FULL_291                   0.17       0.00       0.00       0.17       0.00       0.00       0.00        0.00     0.00   0.000
  R_00_FMOC016               0.17       0.00       0.00       0.17       0.00       0.00       0.00        0.00     0.00   0.000
  R_00_FMOC017               0.17       0.00       0.00       0.17       0.00       0.00       0.00        0.00     0.00   0.000
  R_00_FMOC031               0.17       0.00       0.00       0.17       0.00       0.00       0.00        0.00     0.00   0.000
  R_00_FMOC200               0.17       0.00       0.00       0.17       0.00       0.00       0.00        0.00     0.00   0.000
  R_00_FMOC204               0.17       0.00       0.00       0.17       0.00       0.00       0.00        0.00     0.00   0.000
  R_00_FMOC210               0.17       0.00       0.00       0.17       0.00       0.00       0.00        0.00     0.00   0.000
  R_00_FMOC211               0.17       0.00       0.00       0.17       0.00       0.00       0.00        0.00     0.00   0.000
  R_00_FMOC212               0.17       0.00       0.00       0.17       0.00       0.00       0.00        0.00     0.00   0.000
  R_00_FMOC236               0.17       0.00       0.00       0.17       0.00       0.00       0.00        0.00     0.00   0.000
  R_EUB0625-0020             0.17       0.00       0.00       0.17       0.00       0.00       0.00        0.00     0.00   0.000
  R_EUB0640-0045             0.17       0.00       0.00       0.17       0.00       0.00       0.00        0.00     0.00   0.000
  R_EUB0880-0040             0.17       0.00       0.00       0.17       0.00       0.00       0.00        0.00     0.00   0.000
  R_EUB0880-0080             0.17       0.00       0.00       0.17       0.00       0.00       0.00        0.00     0.00   0.000
  R_EUB0945-0000             0.17       0.00       0.00       0.17       0.00       0.00       0.00        0.00     0.00   0.000
  R_KNT0495-0000             0.17       0.00       0.00       0.17       0.00       0.00       0.00        0.00     0.00   0.000
  R_KNT0500-0000             0.17       0.00       0.00       0.17       0.00       0.00       0.00        0.00     0.00   0.000
  R_KNT0505-0000             0.17       0.00       0.00       0.17       0.00       0.00       0.00        0.00     0.00   0.000
  R_KNT0510-0000             0.17       0.00       0.00       0.17       0.00       0.00       0.00        0.00     0.00   0.000
  R_KNT0510-0170             0.17       0.00       0.00       0.17       0.00       0.00       0.00        0.00     0.00   0.000
  R_KNT0510-0210             0.17       0.00       0.00       0.17       0.00       0.00       0.00        0.00     0.00   0.000
  R_KNT0640-0000             0.17       0.00       0.00       0.17       0.00       0.00       0.00        0.00     0.00   0.000
  R_KNT0700-0000             0.17       0.00       0.00       0.17       0.00       0.00       0.00        0.00     0.00   0.000
  R_KNT0720-0000             0.17       0.00       0.00       0.17       0.00       0.00       0.00        0.00     0.00   0.000
  R_KNT0740-0005             0.17       0.00       0.00       0.17       0.00       0.00       0.00        0.00     0.00   0.000
  R_KNT0840-0000             0.17       0.00       0.00       0.17       0.00       0.00       0.00        0.00     0.00   0.000
  R_KNT0845-0005             0.17       0.00       0.00       0.17       0.00       0.00       0.00        0.00     0.00   0.000
  R_KNT0850-0050             0.17       0.00       0.00       0.17       0.00       0.00       0.00        0.00     0.00   0.000
  R_KNT0860-0000             0.17       0.00       0.00       0.17       0.00       0.00       0.00        0.00     0.00   0.000
  R_KNT0890-0000             0.17       0.00       0.00       0.17       0.00       0.00       0.00        0.00     0.00   0.000
  R_KNT0895-0000             0.17       0.00       0.00       0.17       0.00       0.00       0.00        0.00     0.00   0.000
  R_KNT0900-0000             0.17       0.00       0.00       0.17       0.00       0.00       0.00        0.00     0.00   0.000
  R_KNT0925-0000             0.17       0.00       0.00       0.17       0.00       0.00       0.00        0.00     0.00   0.000
  R_KNT0945-0000             0.17       0.00       0.00       0.17       0.00       0.00       0.00        0.00     0.00   0.000
  R_KNT0975-0035             0.17       0.00       0.00       0.17       0.00       0.00       0.00        0.00     0.00   0.000
  R_KNT1010-0000             0.17       0.00       0.00       0.17       0.00       0.00       0.00        0.00     0.00   0.000
  R_MLR0460-0000             0.17       0.00       0.00       0.17       0.00       0.00       0.00        0.00     0.00   0.000
  R_MLR0475-0000             0.17       0.00       0.00       0.17       0.00       0.00       0.00        0.00     0.00   0.000
  R_MLR0480-0000             0.17       0.00       0.00       0.17       0.00       0.00       0.00        0.00     0.00   0.000
  R_MLR0500-0000             0.17       0.00       0.00       0.17       0.00       0.00       0.00        0.00     0.00   0.000
  R_MLR0505-0000             0.17       0.00       0.00       0.17       0.00       0.00       0.00        0.00     0.00   0.000
  R_MLR0510-0000             0.17       0.00       0.00       0.17       0.00       0.00       0.00        0.00     0.00   0.000
  R_MLR0530-0020             0.17       0.00       0.00       0.17       0.00       0.00       0.00        0.00     0.00   0.000
  R_MLR0530-0030             0.17       0.00       0.00       0.17       0.00       0.00       0.00        0.00     0.00   0.000
  R_MLR0545-0000             0.17       0.00       0.00       0.17       0.00       0.00       0.00        0.00     0.00   0.000
  R_MLR0570-0000             0.17       0.00       0.00       0.17       0.00       0.00       0.00        0.00     0.00   0.000
  R_MLR0580-0010             0.17       0.00       0.00       0.17       0.00       0.00       0.00        0.00     0.00   0.000
  R_MLR0580-0070             0.17       0.00       0.00       0.17       0.00       0.00       0.00        0.00     0.00   0.000
  R_MLR0625-0000             0.17       0.00       0.00       0.17       0.00       0.00       0.00        0.00     0.00   0.000
  R_NHP0455-0000             0.17       0.00       0.00       0.17       0.00       0.00       0.00        0.00     0.00   0.000
  R_NHP0470-0000             0.17       0.00       0.00       0.17       0.00       0.00       0.00        0.00     0.00   0.000
  R_NHP0520-0000             0.17       0.00       0.00       0.17       0.00       0.00       0.00        0.00     0.00   0.000
  R_NHP0615-0075             0.17       0.00       0.00       0.17       0.00       0.00       0.00        0.00     0.00   0.000
  R_NHP0615-0080             0.17       0.00       0.00       0.17       0.00       0.00       0.00        0.00     0.00   0.000
  R_NHP0615-0110             0.17       0.00       0.00       0.17       0.00       0.00       0.00        0.00     0.00   0.000
  R_NHP0615-0120             0.17       0.00       0.00       0.17       0.00       0.00       0.00        0.00     0.00   0.000
  R_NHP0660-0195             0.17       0.00       0.00       0.17       0.00       0.00       0.00        0.00     0.00   0.000
  R_NHP0660-0225             0.17       0.00       0.00       0.17       0.00       0.00       0.00        0.00     0.00   0.000
  R_NHP0660-0255             0.17       0.00       0.00       0.17       0.00       0.00       0.00        0.00     0.00   0.000
  R_NHP0660-0275             0.17       0.00       0.00       0.17       0.00       0.00       0.00        0.00     0.00   0.000
  R_NHP0660-0285             0.17       0.00       0.00       0.17       0.00       0.00       0.00        0.00     0.00   0.000
  
  
  ******************
  Node Depth Summary
  ******************
  
  ---------------------------------------------------------------------------------
                                 Average  Maximum  Maximum  Time of Max    Reported
                                   Depth    Depth      HGL   Occurrence   Max Depth
  Node                 Type         Feet     Feet     Feet  days hr:min        Feet
  ---------------------------------------------------------------------------------
  00_DV001A            JUNCTION     0.34     0.42   268.33     1  11:18        0.41
  00_DV001B            JUNCTION     0.00     0.00   267.92     0  00:00        0.00
  00_DV003A            JUNCTION     0.67     0.83    63.78     1  07:33        0.83
  00_DV003B            JUNCTION     0.00     0.00    62.34     0  00:00        0.00
  00_DV004A            JUNCTION     0.80     0.98    45.62     1  07:43        0.98
  00_DV004B            JUNCTION     0.43     0.53    49.26     1  12:04        0.53
  00_DV006A            JUNCTION     0.00     0.00    46.03     0  00:00        0.00
  00_DV006B            JUNCTION     0.90     1.13    46.18     1  08:35        1.13
  00_DV007A            JUNCTION     0.73     0.89    75.20     1  08:08        0.88
  00_DV007B            JUNCTION     0.91     1.14    75.45     1  08:15        1.14
  00_DV008A            JUNCTION     0.28     0.35   120.91     1  12:47        0.35
  00_DV008B            JUNCTION     0.20     0.26   120.81     1  12:50        0.26
  00_DV009A            JUNCTION     0.13     0.18   271.77     1  12:33        0.18
  00_DV009B            JUNCTION     0.00     0.00   272.51     0  00:00        0.00
  00_DV010B            JUNCTION     0.45     0.59   243.27     1  06:44        0.59
  00_DV027A            JUNCTION     0.74     0.90    75.20     1  08:08        0.90
  00_DV027B            JUNCTION     0.00     0.00    74.27     0  00:00        0.00
  00_DV035A            JUNCTION     0.37     0.48    81.42     1  12:45        0.48
  00_DV035B            JUNCTION     0.00     0.00    80.11     0  00:00        0.00
  00_DV036A            JUNCTION     0.53     0.58   303.18     1  03:29        0.58
  00_DV036B            JUNCTION     0.12     0.22   301.92     1  12:30        0.22
  00_DV036C            JUNCTION     0.13     0.19   303.05     1  03:30        0.19
  00_DV037A            JUNCTION     0.45     0.53   233.16     1  11:28        0.53
  00_DV037B            JUNCTION     0.14     0.21   232.89     1  11:31        0.21
  00_DV037C            JUNCTION     0.36     0.46   233.09     1  11:29        0.46
  00_DV037D            JUNCTION     0.45     0.53   233.16     1  11:28        0.53
  00_DV043A            JUNCTION     0.57     0.72   121.13     1  12:50        0.72
  00_DV043B            JUNCTION     0.31     0.40   121.17     1  12:49        0.40
  00_DV050A            JUNCTION     1.06     1.32    75.63     1  08:06        1.32
  00_DV050B            JUNCTION     0.00     0.00    75.69     0  00:00        0.00
  00_DV092A            JUNCTION     0.31     0.37   292.76     1  11:11        0.37
  00_DV092B            JUNCTION     0.08     0.11   293.22     1  11:11        0.11
  00_DV099A            JUNCTION     0.00     0.00    91.86     0  00:00        0.00
  00_DV099B            JUNCTION     0.35     0.45    92.89     1  12:29        0.45
  00_DV101A            JUNCTION     0.00     0.00   197.28     0  00:00        0.00
  00_DV101B            JUNCTION     0.68     0.82   197.39     1  07:00        0.82
  00_DV102A            JUNCTION     0.05     0.07   222.10     1  11:37        0.07
  00_DV102B            JUNCTION     0.07     0.11   222.82     1  11:37        0.11
  00_DV103A            JUNCTION     0.09     0.22   266.13     1  11:16        0.22
  00_DV103B            JUNCTION     0.00     0.00   266.24     0  00:00        0.00
  00_DV103C            JUNCTION     0.33     0.43   265.91     1  11:15        0.43
  00_FMOC016           JUNCTION     0.36     0.45   293.81     1  06:45        0.45
  00_FMOC017           JUNCTION     0.44     0.56   222.52     1  06:37        0.56
  00_FMOC017X          JUNCTION     0.44     0.56   220.74     1  06:58        0.56
  00_FMOC031           JUNCTION     0.14     0.25   287.25     1  11:15        0.25
  00_FMOC200           JUNCTION     0.31     0.41   247.24     1  06:30        0.41
  00_FMOC204           JUNCTION     0.13     0.29    73.30     1  03:30        0.29
  00_FMOC210           JUNCTION     0.07     0.13   240.76     1  11:15        0.13
  00_FMOC211           JUNCTION     0.39     0.53   202.21     1  06:15        0.53
  00_FMOC212           JUNCTION     0.26     0.34   317.11     1  06:30        0.34
  00_FMOC236           JUNCTION     0.08     0.19   236.85     1  03:30        0.19
  1-10                 JUNCTION     0.00     0.00   161.55     0  00:00        0.00
  1-13                 JUNCTION     0.09     0.12    77.38     1  11:15        0.12
  1-14                 JUNCTION     0.23     0.54    77.28     1  08:01        0.45
  1-17                 JUNCTION     0.00     0.00    98.72     0  00:00        0.00
  1-18                 JUNCTION     0.26     0.37   100.04     1  11:34        0.37
  1-2                  JUNCTION     0.15     0.21    86.51     1  07:05        0.21
  1-20                 JUNCTION     0.25     0.36   104.87     1  11:17        0.36
  1-22                 JUNCTION     0.14     0.24   115.49     1  11:15        0.24
  1-25                 JUNCTION     0.12     0.17   154.83     1  06:17        0.17
  1-26                 JUNCTION     0.32     0.38   137.61     1  07:47        0.38
  1-28                 JUNCTION     1.33     1.41   152.25     1  21:00        1.40
  1-30                 JUNCTION     0.07     0.10   153.82     1  03:41        0.10
  1-31                 JUNCTION     0.10     0.13   192.52     0  14:46        0.13
  1-32                 JUNCTION     0.30     0.35   169.43     0  18:43        0.35
  1-34                 JUNCTION     0.15     0.20   188.40     1  06:10        0.20
  1-35                 JUNCTION     0.66     0.72   214.07     1  11:15        0.72
  1-47                 JUNCTION     0.10     0.14   230.57     1  06:15        0.14
  1-50                 JUNCTION     0.11     0.17   173.53     1  06:02        0.17
  1-54                 JUNCTION     0.09     0.12   197.22     1  06:16        0.12
  1-6                  JUNCTION     0.25     0.35   127.05     0  15:04        0.35
  1-7                  JUNCTION     0.25     0.35   131.30     0  14:48        0.35
  1-72                 JUNCTION     0.13     0.19   269.09     1  06:21        0.19
  1-78                 JUNCTION     0.07     0.14   276.16     1  03:34        0.14
  1-9                  JUNCTION     0.12     0.19   150.10     0  15:19        0.19
  10-100               JUNCTION     0.09     0.12   313.05     1  06:23        0.12
  10-101               JUNCTION     0.04     0.07   280.37     1  11:15        0.07
  10-13                JUNCTION     0.75     0.95    81.59     1  07:39        0.95
  10-15                JUNCTION     0.09     0.13    96.71     1  06:18        0.13
  10-17                JUNCTION     0.22     0.31   108.11     1  06:47        0.31
  10-2                 JUNCTION     0.15     0.20    94.91     1  07:00        0.20
  10-20                JUNCTION     0.18     0.25   105.38     1  06:17        0.25
  10-27                JUNCTION     0.19     0.27   159.32     1  06:50        0.27
  10-33                JUNCTION     0.30     0.37   208.52     0  14:48        0.37
  10-34                JUNCTION     0.19     0.23   175.18     1  11:14        0.23
  10-37                JUNCTION     0.14     0.20   230.33     1  06:04        0.19
  10-42                JUNCTION     0.41     0.54   115.74     1  07:05        0.53
  10-45                JUNCTION     0.05     0.08   229.30     1  03:17        0.08
  10-54                JUNCTION     0.09     0.13   198.45     1  06:22        0.13
  10-56                JUNCTION     0.14     0.18   201.75     1  06:19        0.18
  10-58                JUNCTION     0.22     0.26   221.36     0  18:23        0.26
  10-60                JUNCTION     0.16     0.22   230.29     1  06:15        0.22
  10-69                JUNCTION     0.05     0.07   284.81     1  06:03        0.07
  10-73                JUNCTION     0.10     0.10   234.11     1  12:22        0.10
  10-9                 JUNCTION     0.00     0.00   160.60     0  00:00        0.00
  100-33               JUNCTION     0.14     0.17   185.88     1  11:08        0.17
  100-37               JUNCTION     0.12     0.15   175.02     1  06:23        0.15
  100-46               JUNCTION     0.16     0.24   146.24     1  06:15        0.24
  100-54               JUNCTION     0.13     0.19   182.16     1  06:02        0.18
  100-81               JUNCTION     0.06     0.08   322.46     1  06:12        0.08
  101-37               JUNCTION     0.12     0.16   162.85     1  06:24        0.16
  101-81               JUNCTION     0.07     0.09   297.04     1  06:15        0.09
  102-22               JUNCTION     0.15     0.18   123.01     0  18:54        0.18
  102-24               JUNCTION     0.17     0.22   130.13     1  12:32        0.22
  102-27               JUNCTION     0.29     0.36   148.05     1  07:29        0.36
  102-46               JUNCTION     0.17     0.23   125.08     1  11:09        0.23
  102-51               JUNCTION     0.04     0.05   245.05     1  06:04        0.05
  102-54               JUNCTION     0.20     0.27   187.56     1  06:38        0.27
  102-81               JUNCTION     0.05     0.07   284.15     1  06:15        0.07
  103-22               JUNCTION     0.16     0.19   123.55     0  18:48        0.19
  103-81               JUNCTION     0.05     0.08   271.35     1  06:15        0.08
  104-24               JUNCTION     0.17     0.22   131.50     1  12:29        0.22
  104-81               JUNCTION     0.07     0.09   252.53     1  06:15        0.09
  105-65               JUNCTION     0.02     0.05   229.36     1  11:15        0.05
  105-81               JUNCTION     0.12     0.16   239.38     1  11:04        0.16
  106-46               JUNCTION     0.16     0.22   126.60     1  06:20        0.22
  106-49               JUNCTION     0.04     0.06   243.06     1  03:16        0.06
  106-51               JUNCTION     0.06     0.08   236.12     1  06:15        0.08
  107-24               JUNCTION     0.17     0.22   133.52     0  16:06        0.22
  108-24               JUNCTION     0.17     0.22   133.97     0  16:02        0.22
  109-46               JUNCTION     0.12     0.16   129.22     1  06:18        0.16
  109-51               JUNCTION     0.05     0.07   221.76     1  06:03        0.07
  109-54               JUNCTION     0.13     0.18   181.75     1  06:07        0.18
  109-65               JUNCTION     0.31     0.43   247.29     1  06:30        0.43
  11-100               JUNCTION     0.14     0.20   314.28     1  06:21        0.20
  11-17                JUNCTION     0.29     0.41   108.16     1  11:15        0.41
  11-19                JUNCTION     0.24     0.34   122.76     1  11:13        0.34
  11-33                JUNCTION     0.27     0.32   210.48     1  11:18        0.32
  11-34                JUNCTION     0.19     0.23   178.38     1  11:11        0.23
  11-39                JUNCTION     0.33     0.44   174.62     1  06:40        0.44
  11-41                JUNCTION     0.42     0.58   136.99     1  07:01        0.58
  11-47                JUNCTION     0.10     0.14   225.18     1  06:16        0.14
  11-54                JUNCTION     0.10     0.14   197.97     1  06:23        0.14
  110-37               JUNCTION     0.00     0.00   164.26     0  00:00        0.00
  110-46               JUNCTION     0.16     0.22   130.62     1  06:17        0.22
  110-51               JUNCTION     0.05     0.07   230.45     1  06:02        0.07
  110-65               JUNCTION     0.29     0.40   248.52     1  06:29        0.40
  111-24               JUNCTION     0.17     0.22   134.11     0  16:01        0.22
  111-46               JUNCTION     0.16     0.22   132.32     1  06:15        0.22
  113-27               JUNCTION     0.18     0.22   152.82     1  06:40        0.22
  114-27               JUNCTION     0.18     0.23   152.93     1  06:34        0.22
  114-51               JUNCTION     0.05     0.07   229.75     1  06:05        0.07
  114-83               JUNCTION     0.27     0.37   249.65     1  06:57        0.37
  115-27               JUNCTION     0.18     0.22   152.97     1  06:34        0.22
  115-51               JUNCTION     0.04     0.05   221.55     1  06:06        0.05
  116-27               JUNCTION     0.16     0.19   153.48     1  06:32        0.19
  117-27               JUNCTION     0.16     0.20   153.77     1  06:29        0.20
  117-39               JUNCTION     0.05     0.09   149.40     1  11:10        0.09
  118-27               JUNCTION     0.15     0.22   154.58     1  06:24        0.22
  118-39               JUNCTION     0.03     0.05   147.00     1  11:13        0.05
  119-27               JUNCTION     0.00     0.00   155.14     0  00:00        0.00
  119-51               JUNCTION     0.06     0.09   215.70     1  06:15        0.09
  12-100               JUNCTION     0.13     0.19   315.51     1  06:19        0.18
  12-13                JUNCTION     0.41     0.52    81.61     1  07:37        0.52
  12-2                 JUNCTION     0.23     0.28    93.72     1  11:18        0.28
  12-25                JUNCTION     0.10     0.14   155.15     1  12:30        0.14
  12-3                 JUNCTION     0.23     0.32   103.45     1  06:03        0.31
  12-34                JUNCTION     0.19     0.23   182.13     1  11:08        0.23
  12-40                JUNCTION     0.23     0.31   115.78     1  06:48        0.31
  12-41                JUNCTION     0.27     0.35   135.82     1  07:00        0.35
  12-41A               JUNCTION     0.23     0.30   133.60     1  07:00        0.30
  12-41B               JUNCTION     0.26     0.35   128.35     1  07:03        0.35
  12-41C               JUNCTION     0.27     0.35   123.15     1  07:05        0.35
  12-41D               JUNCTION     0.23     0.30   118.00     1  07:06        0.30
  12-43                JUNCTION     0.36     0.48   158.93     1  07:01        0.48
  12-47                JUNCTION     0.10     0.14   227.23     1  06:15        0.14
  12-52                JUNCTION     0.04     0.06   202.98     1  06:16        0.06
  12-56                JUNCTION     0.14     0.19   198.58     1  06:21        0.19
  12-60                JUNCTION     0.21     0.25   227.53     0  18:15        0.25
  12-63                JUNCTION     0.09     0.13   270.10     1  06:17        0.13
  120-27               JUNCTION     0.15     0.18   148.66     1  07:31        0.18
  120-51               JUNCTION     0.05     0.07   209.06     1  06:09        0.07
  120-65               JUNCTION     0.03     0.06   224.37     1  11:15        0.06
  121-27               JUNCTION     0.30     0.36   147.16     1  07:31        0.36
  123-22               JUNCTION     0.32     0.43   126.49     1  12:51        0.43
  123-27               JUNCTION     0.15     0.19   150.90     1  06:58        0.19
  123-65               JUNCTION     0.19     0.25   245.70     1  06:31        0.25
  124-27               JUNCTION     0.15     0.19   152.22     1  06:56        0.19
  125-51               JUNCTION     0.12     0.16   203.29     1  06:16        0.16
  127-27               JUNCTION     0.28     0.34   152.27     1  06:53        0.34
  127-46               JUNCTION     0.17     0.24   143.89     1  06:15        0.24
  129-65               JUNCTION     0.18     0.24   212.49     1  06:38        0.24
  13-13                JUNCTION     0.63     0.81    82.75     1  07:37        0.81
  13-15                JUNCTION     0.00     0.00    93.74     0  00:00        0.00
  13-17                JUNCTION     0.13     0.18    98.61     1  06:15        0.18
  13-23                JUNCTION     0.13     0.17   152.19     1  06:25        0.17
  13-27                JUNCTION     0.21     0.29   159.06     1  06:58        0.29
  13-29                JUNCTION     0.19     0.23   164.48     1  07:01        0.23
  13-32                JUNCTION     0.19     0.20   163.38     1  03:33        0.20
  13-33                JUNCTION     0.29     0.35   202.55     0  18:06        0.35
  13-34                JUNCTION     0.15     0.19   182.18     1  11:06        0.19
  13-37                JUNCTION     0.19     0.27   218.03     1  06:26        0.27
  13-41                JUNCTION     0.28     0.37   130.44     1  07:00        0.37
  13-49                JUNCTION     0.10     0.15   216.16     1  06:15        0.15
  13-60                JUNCTION     0.14     0.18   228.04     1  06:15        0.18
  13-67                JUNCTION     0.06     0.08   302.29     1  06:16        0.08
  13-74                JUNCTION     0.14     0.19   253.48     1  06:26        0.19
  13-77                JUNCTION     0.09     0.14   263.24     1  11:32        0.14
  13-93                JUNCTION     0.08     0.11   310.55     1  06:15        0.11
  131-27               JUNCTION     0.12     0.15   147.58     1  07:14        0.15
  131-65               JUNCTION     0.25     0.33   217.27     1  06:38        0.33
  132-27               JUNCTION     0.08     0.10   147.72     1  07:32        0.10
  132-65               JUNCTION     0.33     0.45   218.83     1  06:37        0.45
  133-27               JUNCTION     0.11     0.14   148.17     1  07:01        0.14
  133-65               JUNCTION     0.29     0.39   218.98     1  06:36        0.39
  134-65               JUNCTION     0.32     0.43   220.18     1  06:35        0.43
  135-27               JUNCTION     0.16     0.20   149.82     1  07:00        0.20
  135-65               JUNCTION     0.29     0.39   220.88     1  06:35        0.39
  138-65               JUNCTION     0.17     0.22   228.64     1  06:34        0.22
  139-65               JUNCTION     0.17     0.23   232.66     1  06:34        0.23
  14-101               JUNCTION     0.04     0.08   272.32     1  11:17        0.08
  14-14                JUNCTION     1.08     1.49    77.17     1  08:06        1.42
  14-15                JUNCTION     0.46     0.61    85.77     1  11:49        0.60
  14-16                JUNCTION     0.19     0.28    95.76     1  11:50        0.27
  14-17                JUNCTION     0.00     0.00    99.01     0  00:00        0.00
  14-22                JUNCTION     0.10     0.15   127.54     1  12:23        0.15
  14-23                JUNCTION     0.12     0.18   136.28     1  06:16        0.17
  14-27                JUNCTION     0.38     0.46   159.23     1  06:57        0.46
  14-29                JUNCTION     0.20     0.25   165.27     1  06:58        0.25
  14-30                JUNCTION     0.37     0.42   150.90     1  11:25        0.42
  14-32                JUNCTION     0.32     0.35   163.28     0  18:40        0.35
  14-33                JUNCTION     0.31     0.38   203.63     0  18:04        0.38
  14-34                JUNCTION     0.00     0.00   184.00     0  00:00        0.00
  14-49                JUNCTION     0.08     0.12   218.33     1  06:00        0.11
  14-60                JUNCTION     0.14     0.19   228.44     1  06:15        0.19
  14-72                JUNCTION     0.14     0.20   262.66     1  06:22        0.20
  14-73                JUNCTION     0.11     0.12   222.63     1  12:26        0.12
  14-74                JUNCTION     0.26     0.36   253.19     1  06:42        0.36
  14-85                JUNCTION     0.20     0.26   276.15     1  06:38        0.26
  14-97                JUNCTION     0.11     0.14   293.08     1  06:24        0.14
  140-65               JUNCTION     0.26     0.35   234.54     1  06:33        0.35
  141-65               JUNCTION     0.23     0.32   237.44     1  06:33        0.32
  142-65               JUNCTION     0.23     0.31   239.00     1  06:32        0.31
  143-65               JUNCTION     0.19     0.25   241.89     1  06:32        0.25
  15-101               JUNCTION     0.02     0.04   277.05     1  11:16        0.04
  15-14                JUNCTION     1.20     1.59    77.12     1  07:58        1.53
  15-15                JUNCTION     0.22     0.22    90.21     0  00:21        0.22
  15-16                JUNCTION     0.14     0.20    96.85     1  11:45        0.20
  15-22                JUNCTION     0.10     0.15   127.59     1  12:29        0.15
  15-27                JUNCTION     0.07     0.10   161.01     1  06:58        0.10
  15-28                JUNCTION     0.13     0.17   143.74     1  07:09        0.17
  15-29                JUNCTION     0.20     0.24   165.94     1  06:57        0.24
  15-30                JUNCTION     0.31     0.35   154.35     1  11:23        0.34
  15-32                JUNCTION     0.21     0.22   164.82     1  03:30        0.22
  15-34                JUNCTION     0.15     0.19   183.68     1  11:05        0.19
  15-38                JUNCTION     0.00     0.00   151.07     0  00:00        0.00
  15-40                JUNCTION     0.23     0.29   108.00     1  06:48        0.29
  15-48                JUNCTION     0.00     0.00   232.50     0  00:00        0.00
  15-60                JUNCTION     0.21     0.28   227.23     1  06:03        0.28
  15-71                JUNCTION     0.31     0.46   212.11     1  06:51        0.46
  15-85                JUNCTION     0.17     0.23   269.73     1  06:45        0.23
  15-97                JUNCTION     0.23     0.32   293.91     1  06:23        0.32
  16-15                JUNCTION     0.00     0.00    95.01     0  00:00        0.00
  16-2                 JUNCTION     0.20     0.25    94.35     1  11:16        0.25
  16-27                JUNCTION     0.20     0.28   158.52     1  06:58        0.28
  16-30                JUNCTION     0.33     0.36   157.33     1  11:20        0.36
  16-32                JUNCTION     0.21     0.22   166.25     0  00:12        0.21
  16-34                JUNCTION     0.13     0.17   184.11     1  11:04        0.17
  16-38                JUNCTION     0.00     0.00   157.50     0  00:00        0.00
  16-40                JUNCTION     0.11     0.14    99.72     1  06:50        0.14
  16-42                JUNCTION     0.49     0.65   105.17     1  07:07        0.64
  16-50                JUNCTION     0.08     0.11   222.86     1  03:30        0.11
  16-60                JUNCTION     0.18     0.21   226.64     0  18:15        0.21
  16-77                JUNCTION     0.14     0.20   229.94     1  06:12        0.20
  16-85                JUNCTION     0.19     0.25   271.24     1  06:44        0.25
  17-15                JUNCTION     0.47     0.61    86.65     1  11:46        0.61
  17-26                JUNCTION     0.18     0.24   139.12     1  06:15        0.24
  17-27                JUNCTION     0.19     0.27   161.52     1  06:58        0.27
  17-30                JUNCTION     0.32     0.36   160.30     1  11:17        0.36
  17-32                JUNCTION     0.00     0.00   167.08     0  00:00        0.00
  17-40                JUNCTION     0.24     0.30   101.47     1  06:50        0.30
  17-45                JUNCTION     0.09     0.14   206.21     1  06:19        0.13
  17-52                JUNCTION     0.10     0.14   190.61     1  06:15        0.14
  17-55                JUNCTION     0.08     0.11   233.35     1  11:07        0.11
  17-60                JUNCTION     0.23     0.27   225.61     0  18:15        0.27
  17-67                JUNCTION     0.17     0.23   265.44     1  06:18        0.22
  17-69                JUNCTION     0.13     0.18   209.18     1  06:32        0.18
  17-85                JUNCTION     0.18     0.24   272.95     1  06:42        0.24
  18-1                 JUNCTION     0.16     0.21    84.70     1  11:16        0.21
  18-102               JUNCTION     0.03     0.06   300.60     1  11:03        0.06
  18-15                JUNCTION     0.00     0.00    91.39     0  00:00        0.00
  18-17                JUNCTION     0.17     0.25    97.45     1  06:15        0.25
  18-24                JUNCTION     0.51     0.60   131.86     0  19:26        0.60
  18-26                JUNCTION     0.39     0.51   135.15     1  07:37        0.51
  18-32                JUNCTION     0.00     0.00   167.42     0  00:00        0.00
  18-39                JUNCTION     0.23     0.31   173.00     1  06:41        0.31
  18-40                JUNCTION     0.29     0.39   101.68     1  06:51        0.39
  18-45                JUNCTION     0.09     0.13   210.58     1  06:17        0.12
  18-54                JUNCTION     0.08     0.11   198.18     1  06:10        0.11
  18-67                JUNCTION     0.05     0.07   291.42     1  06:17        0.07
  18-69                JUNCTION     0.13     0.18   212.45     1  06:31        0.18
  18-85                JUNCTION     0.18     0.24   274.59     1  06:40        0.24
  18-93                JUNCTION     0.10     0.14   308.09     1  06:11        0.14
  19-1                 JUNCTION     0.15     0.20    85.53     1  07:19        0.20
  19-13                JUNCTION     0.49     0.64    86.39     1  07:03        0.64
  19-15                JUNCTION     0.47     0.61    87.55     1  11:44        0.61
  19-17                JUNCTION     0.17     0.24    97.93     1  06:15        0.24
  19-29                JUNCTION     0.19     0.23   166.93     1  06:55        0.23
  19-32                JUNCTION     0.00     0.00   173.31     0  00:00        0.00
  19-37                JUNCTION     0.16     0.22   228.94     1  06:15        0.22
  19-40                JUNCTION     0.39     0.49   101.98     1  06:48        0.49
  19-43                JUNCTION     0.09     0.13   169.48     1  06:27        0.13
  19-45                JUNCTION     0.04     0.07   221.48     1  03:20        0.07
  19-54                JUNCTION     0.12     0.17   192.19     1  06:17        0.17
  19-63                JUNCTION     0.10     0.14   257.21     1  06:18        0.14
  19-73                JUNCTION     0.18     0.20   216.03     1  12:31        0.20
  2-10                 JUNCTION     0.00     0.00   161.85     0  00:00        0.00
  2-13                 JUNCTION     0.00     0.01    78.42     1  08:05        0.01
  2-14                 JUNCTION     0.75     1.10    77.22     1  08:00        1.08
  2-15                 JUNCTION     0.06     0.07    90.21     1  03:35        0.07
  2-17                 JUNCTION     0.00     0.00    99.60     0  00:00        0.00
  2-18                 JUNCTION     0.25     0.36   101.19     1  11:31        0.36
  2-20                 JUNCTION     0.24     0.35   104.88     1  11:19        0.34
  2-25                 JUNCTION     0.12     0.17   156.54     1  06:10        0.16
  2-28                 JUNCTION     0.67     0.73   152.25     1  06:54        0.73
  2-30                 JUNCTION     0.07     0.10   153.90     1  03:39        0.10
  2-31                 JUNCTION     0.10     0.14   194.28     0  14:45        0.14
  2-32                 JUNCTION     0.35     0.41   169.58     0  18:41        0.41
  2-33                 JUNCTION     0.27     0.33   202.18     0  14:47        0.33
  2-34                 JUNCTION     0.15     0.19   178.66     1  11:10        0.19
  2-41                 JUNCTION     0.09     0.13   189.63     1  06:23        0.12
  2-54                 JUNCTION     0.11     0.16   201.77     1  06:14        0.16
  2-56                 JUNCTION     0.14     0.19   204.79     1  06:17        0.19
  2-67                 JUNCTION     0.14     0.19   281.04     1  06:17        0.19
  2-69                 JUNCTION     0.05     0.07   263.27     1  06:15        0.07
  2-7                  JUNCTION     0.25     0.36   132.21     0  14:43        0.36
  2-74                 JUNCTION     0.28     0.40   262.04     1  06:38        0.40
  2-78                 JUNCTION     0.06     0.12   276.53     1  03:32        0.12
  2-85                 JUNCTION     0.12     0.16   286.57     1  06:35        0.16
  2-9                  JUNCTION     0.12     0.20   151.61     0  15:05        0.19
  20-101               JUNCTION     0.10     0.15   270.24     1  11:15        0.15
  20-13                JUNCTION     0.42     0.55    86.72     1  07:02        0.55
  20-14                JUNCTION     1.08     1.66    77.48     1  08:01        1.56
  20-15                JUNCTION     0.00     0.00    91.74     0  00:00        0.00
  20-17                JUNCTION     0.13     0.19    97.83     1  06:15        0.19
  20-24                JUNCTION     0.40     0.52   132.58     1  07:45        0.52
[...]
  NHP0475-0000.1          2.34   0.00  0.00  0.00  0.00  0.00  0.00  1.00  0.00  0.00
  NHP0480-0000.1          1.00   0.00  0.00  0.00  0.00  1.00  0.00  0.00  0.00  0.00
  NHP0485-0000.1          1.00   0.00  0.00  0.00  0.00  1.00  0.00  0.00  0.09  0.00
  NHP0490-0000.1          1.00   0.00  0.00  0.00  0.00  1.00  0.00  0.00  0.97  0.00
  NHP0495-0000.1          7.26   0.00  0.00  0.00  0.00  1.00  0.00  0.00  0.00  0.00
  NHP0500-0000.1          1.00   0.00  0.00  0.00  0.00  1.00  0.00  0.00  0.99  0.00
  NHP0505-0000.1          1.00   0.00  0.00  0.00  0.00  1.00  0.00  0.00  0.16  0.00
  NHP0510-0000.1          1.00   0.00  0.00  0.00  0.00  1.00  0.00  0.00  0.89  0.00
  NHP0515-0000.1          1.00   0.00  0.00  0.00  0.10  0.90  0.00  0.00  1.00  0.00
  NHP0520-0000.1          1.00   0.00  0.00  0.00  0.00  1.00  0.00  0.00  0.84  0.00
  NHP0525-0000.1          1.00   0.00  0.00  0.00  0.99  0.01  0.00  0.00  1.00  0.00
  NHP0530-0000.1          1.00   0.00  0.00  0.00  0.01  0.99  0.00  0.00  0.91  0.00
  NHP0535-0000.1          1.00   0.00  0.00  0.00  0.01  0.99  0.00  0.00  0.96  0.00
  NHP0540-0000.1          1.00   0.00  0.00  0.00  0.01  0.99  0.00  0.00  0.01  0.00
  NHP0545-0000.1          1.00   0.00  0.00  0.00  0.01  0.99  0.00  0.00  0.12  0.00
  NHP0550-0000.1          1.00   0.00  0.00  0.00  0.02  0.98  0.00  0.00  0.99  0.00
  NHP0555-0000.1          1.00   0.00  0.00  0.00  0.02  0.98  0.00  0.00  0.99  0.00
  NHP0560-0000.1          1.00   0.00  0.00  0.00  0.01  0.99  0.00  0.00  0.25  0.00
  NHP0565-0000.1          1.00   0.00  0.00  0.00  0.01  0.99  0.00  0.00  0.90  0.00
  NHP0570-0000.1          1.00   0.00  0.00  0.00  0.01  0.99  0.00  0.00  0.43  0.00
  NHP0575-0000.1          1.00   0.00  0.00  0.00  0.20  0.80  0.00  0.00  0.00  0.00
  NHP0580-0000.1          1.00   0.00  0.00  0.00  1.00  0.00  0.00  0.00  0.99  0.00
  NHP0585-0000.1          1.00   0.00  0.00  0.00  1.00  0.00  0.00  0.00  0.91  0.00
  NHP0590-0000.1          1.00   0.00  0.00  0.00  1.00  0.00  0.00  0.00  0.07  0.00
  NHP0595-0000.1          1.00   0.00  0.00  0.00  0.00  0.00  0.00  1.00  0.00  0.00
  NHP0600-0000.1          1.00   0.00  0.01  0.00  0.00  0.99  0.00  0.00  0.98  0.00
  NHP0605-0000.1          1.00   0.01  0.00  0.00  0.00  0.99  0.00  0.00  0.74  0.00
  NHP0610-0000.1          1.00   0.01  0.00  0.00  0.00  0.99  0.00  0.00  0.21  0.00
  NHP0615-0000.1          1.00   0.01  0.00  0.00  0.00  0.99  0.00  0.00  0.86  0.00
  NHP0615-0005.1          1.00   0.01  0.00  0.00  0.17  0.83  0.00  0.00  0.99  0.00
  NHP0615-0015.1          1.00   0.00  0.00  0.00  0.00  0.00  0.00  1.00  0.00  0.00
  NHP0615-0020.1          1.00   0.00  0.00  0.00  0.00  0.00  0.00  1.00  0.00  0.00
  NHP0615-0025.1          1.00   0.00  0.00  0.00  0.00  0.00  0.00  1.00  0.00  0.00
  NHP0615-0030.1          1.00   0.00  0.00  0.00  0.13  0.87  0.00  0.00  0.00  0.00
  NHP0615-0035.1          1.00   0.00  0.00  0.00  0.97  0.03  0.00  0.00  0.97  0.00
  NHP0615-0040.1          1.00   0.00  0.00  0.00  0.00  0.00  0.00  1.00  0.00  0.00
  NHP0615-0045.1          1.00   0.00  0.00  0.00  1.00  0.00  0.00  0.00  1.00  0.00
  NHP0615-0050.1          1.00   0.00  0.00  0.00  0.98  0.02  0.00  0.00  0.71  0.00
  NHP0615-0055.1          1.00   0.00  0.00  0.00  0.99  0.01  0.00  0.00  0.21  0.00
  NHP0615-0060.1          1.00   0.00  0.00  0.00  0.00  0.00  0.00  1.00  0.00  0.00
  NHP0615-0065.1          1.00   0.00  0.00  0.00  0.00  1.00  0.00  0.00  0.84  0.00
  NHP0615-0070.1          1.00   0.00  0.00  0.00  0.00  1.00  0.00  0.00  0.31  0.00
  NHP0615-0075.1          1.56   0.00  0.00  0.00  0.04  0.25  0.00  0.71  0.25  0.00
  NHP0615-0080.1          1.00   0.00  0.00  0.00  0.00  0.00  0.00  1.00  0.00  0.00
  NHP0615-0085.1          1.00   0.00  0.00  0.00  1.00  0.00  0.00  0.00  0.98  0.00
  NHP0615-0090.1          1.00   0.00  0.00  0.00  1.00  0.00  0.00  0.00  0.34  0.00
  NHP0615-0095.1          1.02   0.00  0.00  0.00  1.00  0.00  0.00  0.00  0.12  0.00
  NHP0615-0100.1          1.00   0.00  0.00  0.00  1.00  0.00  0.00  0.00  0.21  0.00
  NHP0615-0105.1          1.00   0.00  0.00  0.00  1.00  0.00  0.00  0.00  0.91  0.00
  NHP0615-0110.1          1.00   0.00  0.00  0.00  1.00  0.00  0.00  0.00  0.01  0.00
  NHP0615-0115.1          1.00   0.00  0.00  0.00  1.00  0.00  0.00  0.00  1.00  0.00
  NHP0615-0120.1          1.00   0.00  0.00  0.00  1.00  0.00  0.00  0.00  0.46  0.00
  NHP0640-0000.1          1.00   0.00  0.00  0.00  0.01  0.99  0.00  0.00  0.00  0.00
  NHP0645-0000.1          1.00   0.00  0.00  0.00  1.00  0.00  0.00  0.00  0.99  0.00
  NHP0650-0000.1          1.00   0.00  0.00  0.00  1.00  0.00  0.00  0.00  0.00  0.00
  NHP0655-0000.1          1.00   0.00  0.00  0.00  0.00  0.00  0.00  1.00  0.00  0.00
  NHP0660-0000.1          1.00   0.00  0.00  0.00  1.00  0.00  0.00  0.00  1.00  0.00
  NHP0660-0005.1          8.48   0.00  0.00  0.00  0.00  0.22  0.00  0.78  0.16  0.00
  NHP0660-0010.1          2.75   0.00  0.00  0.00  0.00  1.00  0.00  0.00  0.80  0.00
  NHP0660-0015.1          1.00   0.00  0.00  0.00  0.00  0.99  0.00  0.00  0.01  0.00
  NHP0660-0020.1          1.00   0.00  0.00  0.00  1.00  0.00  0.00  0.00  0.00  0.00
  NHP0660-0025.1          1.00   0.00  0.00  0.00  1.00  0.00  0.00  0.00  0.99  0.00
  NHP0660-0030.1          1.00   0.00  0.00  0.00  1.00  0.00  0.00  0.00  0.86  0.00
  NHP0660-0035.1          1.00   0.00  0.00  0.00  1.00  0.00  0.00  0.00  0.35  0.00
  NHP0660-0040.1          1.00   0.00  0.00  0.00  1.00  0.00  0.00  0.00  0.38  0.00
  NHP0660-0045.1          1.00   0.00  0.00  0.00  1.00  0.00  0.00  0.00  0.92  0.00
  NHP0660-0050.1          1.00   0.00  0.00  0.00  0.00  0.00  0.00  1.00  0.00  0.00
  NHP0660-0055.1          1.00   0.00  1.00  0.00  0.00  0.00  0.00  0.00  0.00  0.00
  NHP0660-0060.1          1.00   1.00  0.00  0.00  0.00  0.00  0.00  0.00  0.00  0.00
  NHP0660-0065.1          1.00   1.00  0.00  0.00  0.00  0.00  0.00  0.00  0.00  0.00
  NHP0660-0070.1          1.00   1.00  0.00  0.00  0.00  0.00  0.00  0.00  0.00  0.00
  NHP0660-0075.1          1.00   1.00  0.00  0.00  0.00  0.00  0.00  0.00  0.00  0.00
  NHP0660-0080.1          1.00   1.00  0.00  0.00  0.00  0.00  0.00  0.00  0.00  0.00
  NHP0660-0085.1          1.00   0.00  0.00  0.00  0.00  0.00  0.00  1.00  0.00  0.00
  NHP0660-0090.1          1.00   0.00  0.00  0.00  0.99  0.00  0.00  0.01  0.98  0.00
  NHP0660-0095.1          1.00   0.00  0.00  0.00  1.00  0.00  0.00  0.00  0.91  0.00
  NHP0660-0100.1          1.12   0.00  0.00  0.00  1.00  0.00  0.00  0.00  0.84  0.00
  NHP0660-0105.1          1.00   0.00  0.00  0.00  1.00  0.00  0.00  0.00  0.02  0.00
  NHP0660-0110.1          1.00   0.00  0.00  0.00  0.00  0.00  0.00  1.00  0.00  0.00
  NHP0660-0115.1          1.39   0.00  0.00  0.00  0.00  0.00  0.00  1.00  0.00  0.00
  NHP0660-0120.1          1.00   0.00  0.00  0.00  0.46  0.54  0.00  0.00  0.00  0.00
  NHP0660-0125.1          1.00   0.00  0.00  0.00  1.00  0.00  0.00  0.00  0.99  0.00
  NHP0660-0130.1          1.00   0.00  0.00  0.00  1.00  0.00  0.00  0.00  0.99  0.00
  NHP0660-0135.1          1.00   0.00  0.00  0.00  0.99  0.00  0.00  0.00  0.96  0.00
  NHP0660-0140.1          1.00   0.00  0.00  0.00  0.00  0.00  0.00  1.00  0.00  0.00
  NHP0660-0145.1          1.00   0.00  0.00  0.00  0.00  0.00  0.00  1.00  0.00  0.00
  NHP0660-0150.1          1.50   0.00  0.00  0.00  0.00  0.00  0.00  1.00  0.00  0.00
  NHP0660-0155.1          1.00   0.00  0.00  0.00  0.00  0.00  0.00  1.00  0.00  0.00
  NHP0660-0160.1          1.00   0.00  0.00  0.00  1.00  0.00  0.00  0.00  0.99  0.00
  NHP0660-0165.1          1.00   0.00  0.00  0.00  0.00  0.00  0.00  1.00  0.00  0.00
  NHP0660-0170.1          1.00   0.00  0.00  0.00  0.00  1.00  0.00  0.00  0.95  0.00
  NHP0660-0175.1          1.00   0.00  0.00  0.00  0.00  1.00  0.00  0.00  0.30  0.00
  NHP0660-0180.1          1.11   0.00  0.00  0.00  0.00  1.00  0.00  0.00  0.00  0.00
  NHP0660-0185.1          1.00   0.00  0.00  0.00  0.00  0.00  0.00  1.00  0.00  0.00
  NHP0660-0190.1          1.00   0.00  0.00  0.00  0.00  0.00  0.00  1.00  0.00  0.00
  NHP0660-0195.1          1.00   0.00  0.00  0.00  0.00  0.00  0.00  1.00  0.00  0.00
  NHP0660-0200.1          1.00   0.00  0.00  0.00  0.00  0.00  0.00  1.00  0.00  0.00
  NHP0660-0205.1          1.00   0.00  0.00  0.00  0.00  0.00  0.00  1.00  0.00  0.00
  NHP0660-0210.1          1.00   0.00  0.00  0.00  0.00  0.87  0.00  0.13  0.82  0.00
  NHP0660-0215.1          1.00   0.00  0.00  0.00  0.00  0.00  0.00  1.00  0.00  0.00
  NHP0660-0220.1          1.00   0.00  0.00  0.00  0.00  0.00  0.00  1.00  0.00  0.00
  NHP0660-0225.1          1.00   0.00  0.00  0.00  0.00  0.00  0.00  1.00  0.00  0.00
  NHP0660-0230.1          1.00   0.00  0.00  0.00  0.00  0.00  0.00  1.00  0.00  0.00
  NHP0660-0235.1          1.00   0.00  0.00  0.00  1.00  0.00  0.00  0.00  1.00  0.00
  NHP0660-0240.1          1.61   0.00  0.00  0.00  1.00  0.00  0.00  0.00  0.07  0.00
  NHP0660-0245.1          1.00   0.00  0.00  0.00  0.00  0.00  0.00  1.00  0.00  0.00
  NHP0660-0250.1          1.00   0.00  0.00  0.00  0.00  0.00  0.00  1.00  0.00  0.00
  NHP0660-0255.1          1.00   0.00  0.00  0.00  0.00  0.00  0.00  1.00  0.00  0.00
  NHP0660-0260.1          2.56   1.00  0.00  0.00  0.00  0.00  0.00  0.00  0.00  0.00
  NHP0660-0265.1         12.97   0.00  0.00  0.00  0.00  0.00  0.00  1.00  0.00  0.00
  NHP0660-0270.1          5.67   0.00  0.00  0.00  0.00  0.00  0.00  1.00  0.00  0.00
  NHP0660-0275.1          1.00   0.00  0.00  0.00  0.29  0.71  0.00  0.00  0.00  0.00
  NHP0660-0280.1          1.00   0.00  0.00  0.00  0.00  0.00  0.00  1.00  0.00  0.00
  NHP0660-0285.1          1.00   0.00  0.00  0.00  0.00  1.00  0.00  0.00  0.00  0.00
  NHP0660-0290.1          7.88   0.00  0.00  0.00  1.00  0.00  0.00  0.00  1.00  0.00
  NHP0660-0295.1          1.00   0.00  0.00  0.00  0.00  1.00  0.00  0.00  0.00  0.00
  OUT-1                   1.29   0.00  0.00  0.00  0.00  1.00  0.00  0.00  0.26  0.00
  OUT-3                   1.29   0.00  0.00  0.00  0.00  1.00  0.00  0.00  0.00  0.00
  OUT-4                   1.54   0.00  0.00  0.00  0.00  1.00  0.00  0.00  0.24  0.00
  OUT-5                   1.39   0.00  0.00  0.00  0.00  1.00  0.00  0.00  0.28  0.00
  OUT-6                   4.33   0.00  0.00  0.00  0.00  1.00  0.00  0.00  0.77  0.00
  S16-40A1.1              1.47   0.00  0.00  0.00  1.00  0.00  0.00  0.00  0.01  0.00
  S16-40A2.1             55.03   0.00  0.02  0.00  0.98  0.00  0.00  0.00  0.00  0.00
  S21-14A1.1              3.51   0.00  0.00  0.00  1.00  0.00  0.00  0.00  0.00  0.00
  S21-14A2.1             15.88   0.00  0.04  0.00  0.96  0.00  0.00  0.00  0.00  0.00
  S21-14B1.2              1.18   0.03  0.00  0.00  0.97  0.00  0.00  0.00  0.00  0.00
  S21-14B2.2             14.61   0.03  0.01  0.00  0.96  0.00  0.00  0.00  0.00  0.00
  S3-35A1.2               2.44   0.00  0.00  0.00  1.00  0.00  0.00  0.00  0.00  0.00
  S3-35A2.2              47.79   0.00  0.01  0.00  0.99  0.00  0.00  0.00  0.00  0.00
  S3-35B1.1               2.44   0.00  0.00  0.00  1.00  0.00  0.00  0.00  0.00  0.00
  S3-35B2.1              47.79   0.00  0.01  0.00  0.99  0.00  0.00  0.00  0.00  0.00
  S42-27A1.1              1.07   0.01  0.00  0.00  0.99  0.00  0.00  0.00  0.00  0.00
  S42-27A2.1              9.07   0.01  0.04  0.00  0.95  0.00  0.00  0.00  0.00  0.00
  S42-27B1.2              1.07   0.01  0.00  0.00  0.99  0.00  0.00  0.00  0.00  0.00
  S42-27B2.2              9.07   0.01  0.04  0.00  0.95  0.00  0.00  0.00  0.00  0.00
  S57-38A1.1              1.00   0.00  0.00  0.00  1.00  0.00  0.00  0.00  0.00  0.00
  S57-38A2.1              9.08   0.00  0.01  0.00  0.99  0.00  0.00  0.00  0.00  0.00
  S65-27A1.2              1.00   0.01  0.00  0.00  0.99  0.00  0.00  0.00  0.24  0.00
  S65-27A2.2              8.96   0.01  0.00  0.00  0.96  0.03  0.00  0.00  0.00  0.00
  S65-27B1.1              1.19   0.00  0.00  0.00  0.99  0.00  0.00  0.00  0.02  0.00
  S65-27B2.1            101.25   0.00  0.00  0.00  0.99  0.00  0.00  0.00  0.05  0.00
  S66-13A1.1              1.74   0.00  0.01  0.00  0.99  0.00  0.00  0.00  0.00  0.00
  S66-13B1.2              1.74   0.00  0.01  0.00  0.99  0.00  0.00  0.00  0.00  0.00
  S66-13B2.2            120.30   0.00  0.00  0.00  0.99  0.01  0.00  0.00  0.08  0.00
  S66-42A1.2              1.25   0.00  0.00  0.00  1.00  0.00  0.00  0.00  0.01  0.00
  S66-42A2.2            410.68   0.00  0.05  0.00  0.95  0.00  0.00  0.00  0.00  0.00
  S66-42B1.1              1.25   0.00  0.00  0.00  1.00  0.00  0.00  0.00  0.01  0.00
  S66-42B2.1            410.68   0.00  0.05  0.00  0.95  0.00  0.00  0.00  0.00  0.00
  S6613A2.1              10.62   0.00  0.00  0.00  0.99  0.00  0.00  0.00  0.08  0.00
  S82-29A1.S              2.76   1.00  0.00  0.00  0.00  0.00  0.00  0.00  0.00  0.00
  S82-29A2.S             71.46   1.00  0.00  0.00  0.00  0.00  0.00  0.00  0.00  0.00
  S91-17A1.1             19.78   0.02  0.00  0.00  0.98  0.00  0.00  0.00  0.01  0.00
  S91-17A2.1             10.59   0.02  0.04  0.00  0.94  0.00  0.00  0.00  0.00  0.00
  S91-17B1.1             19.78   0.02  0.00  0.00  0.98  0.00  0.00  0.00  0.01  0.00
  S91-17B2.1             10.59   0.02  0.04  0.00  0.94  0.00  0.00  0.00  0.00  0.00
  S91-44A1.1              1.00   0.00  0.00  0.00  1.00  0.00  0.00  0.00  0.01  0.00
  S91-44A2.1             18.96   0.00  0.02  0.00  0.98  0.00  0.00  0.00  0.00  0.00
  
  
  *************************
  Conduit Surcharge Summary
  *************************
  
  ----------------------------------------------------------------------------
                                                           Hours        Hours 
                         --------- Hours Full --------   Above Full   Capacity
  Conduit                Both Ends  Upstream  Dnstream   Normal Flow   Limited
  ----------------------------------------------------------------------------
  00_DV058E.1                 0.01      0.01      0.01     20.76         0.01
  1-14.1                      0.01      0.01     34.45      0.01         0.01
  1-28.1                      0.01      0.01     45.77      0.01         0.01
  16-40.1                     0.01      0.01     46.73      0.01         0.01
  2-28.1                      0.01      0.01     46.40      0.01         0.01
  21-14.1                     0.01      0.01     45.91      0.01         0.01
  21-14.2                     0.01      0.01     45.15      0.01         0.01
  3-35.1                      0.01      0.01     47.32      0.01         0.01
  3-35.2                      0.01      0.01     47.32      0.01         0.01
  30-67.1                     0.01      0.01      0.01     40.78         0.01
  34-13.1                     0.01      0.01     47.45      0.01         0.01
  34-13.2                    47.45     47.45     47.47      0.01         0.01
  38-41.1                     0.01      0.01      0.01     43.25         0.01
  4-14.1                      0.01      0.01      0.01     46.80         0.01
  42-27.1                     0.01      0.01     45.77      0.01         0.01
  42-27.2                     0.01      0.01     45.77      0.01         0.01
  43-21.1                     0.01      0.01     36.55      0.01         0.01
  44-14.2                    44.14     44.14     44.23     32.51        32.45
  46-19.1                     0.01      0.01     46.21      0.01         0.01
  49-33.1                     0.01      0.01      0.01     46.35         0.01
  57-17.1                     0.01      0.01      0.01     44.48         0.01
  57-38.1                     0.01      0.01     47.21      0.01         0.01
  58-17.1                     5.23      5.23     17.74     39.89         0.01
  58-27.1                     0.01      0.01      0.01      7.94         0.01
  59-17.2                     0.01      0.01      5.23      0.01         0.01
  62-83.1                     0.01      0.01     36.68      0.01         0.01
  63-17.1                     0.01      0.01      0.01      1.41         0.01
  63-83.1                     0.01      0.01     36.68      0.01         0.01
  65-27.1                     0.01      0.01     45.31      0.01         0.01
  66-13.1                     0.01      0.01     44.33      0.01         0.01
  66-13.2                     0.01      0.01     44.09      0.01         0.01
  66-42.1                     0.01      0.01     45.16      0.01         0.01
  66-42.2                     0.01      0.01     45.16      0.01         0.01
  72-14.2                     0.01      0.01     40.23      0.01         0.01
  73-13.2                     0.01      0.01      1.64      0.01         0.01
  91-17A.1                    0.01      0.01     44.25      0.01         0.01
  91-17A.2                    0.01      0.01     44.25      0.01         0.01
  91-44.1                     0.01      0.01     47.01      0.01         0.01
  KNT0510-0230.2              0.01      0.01      0.01      1.22         0.01
  KNT0840-0000.1              0.01      0.01      0.01      1.41         0.01
  KNT0960-0000.1              0.01      0.01      0.01      1.43         0.01
  MLR0620-0000.1              0.45     34.20      0.45     35.17         0.45
  MLR0625-0000.1              0.01      0.01     10.86      0.01         0.01
  S16-40A1.1                 46.73     46.73     46.82      0.01         0.01
  S16-40A2.1                  0.01      0.01     46.70      0.01         0.01
  S21-14A1.1                 45.91     45.91     45.92      0.01         0.03
  S21-14A2.1                  0.01      0.01     45.15      0.01         0.01
  S21-14B1.2                 45.15     45.15     45.16      0.01         0.01
  S21-14B2.2                  0.01      0.01     45.15      0.01         0.01
  S3-35A1.2                  47.32     47.32     47.32     47.00        46.02
  S3-35A2.2                  29.86     29.86     47.22      0.01         0.01
  S3-35B1.1                  47.32     47.32     47.32     47.00        46.02
  S3-35B2.1                  29.86     29.86     47.22      0.01         0.01
  S42-27A1.1                 45.77     45.77     45.77     32.66        32.78
  S42-27A2.1                  0.01      0.01     44.89      0.01         0.01
  S42-27B1.2                 45.77     45.77     45.77     32.66        32.78
  S42-27B2.2                  0.01      0.01     44.89      0.01         0.01
  S57-38A1.1                 47.21     47.21     47.30      0.01         0.01
  S57-38A2.1                  0.01      0.01     47.09      0.01         0.01
  S65-27B1.1                 45.31     45.31     46.42      0.01         0.01
  S65-27B2.1                  0.01      0.01     46.42      0.01         0.01
  S66-13A1.1                 44.33     44.33     44.37      0.01         0.01
  S66-13B1.2                 44.09     44.09     44.11      0.01         0.01
  S66-13B2.2                  0.01      0.01     44.11      0.01         0.01
  S66-42A1.2                 45.16     45.16     45.48      0.01         0.01
  S66-42A2.2                  0.01      0.01     44.97      0.01         0.01
  S66-42B1.1                 45.16     45.16     45.48      0.01         0.01
  S66-42B2.1                  0.01      0.01     44.97      0.01         0.01
  S6613A2.1                   0.01      0.01     44.37      0.01         0.01
  S91-17A1.1                 44.25     44.25     44.88      0.01         0.01
  S91-17A2.1                  0.01      0.01     44.17      0.01         0.01
  S91-17B1.1                 44.25     44.25     44.88      0.01         0.01
  S91-17B2.1                  0.01      0.01     44.17      0.01         0.01
  S91-44A1.1                 47.01     47.01     47.09      0.01         0.01
  S91-44A2.1                  0.01      0.01     46.92      0.01         0.01
  

  Analysis begun on:  Fri Nov 29 10:53:40 2019
  Analysis ended on:  Fri Nov 29 10:54:20 2019
  Total elapsed time: 00:00:40