
  EPA STORM WATER MANAGEMENT MODEL - VERSION 5.1 (Build 5.1.013)
  --------------------------------------------------------------

  WARNING 04: minimum elevation drop used for Conduit CDT-117
  WARNING 04: minimum elevation drop used for Conduit CDT-123
  WARNING 04: minimum elevation drop used for Conduit CDT-149
  WARNING 04: minimum elevation drop used for Conduit CDT-15
  WARNING 04: minimum elevation drop used for Conduit CDT-151
  WARNING 04: minimum elevation drop used for Conduit CDT-167
  WARNING 04: minimum elevation drop used for Conduit CDT-21
  WARNING 04: minimum elevation drop used for Conduit CDT-29
  WARNING 04: minimum elevation drop used for Conduit CDT-31
  WARNING 04: minimum elevation drop used for Conduit CDT-33
  WARNING 04: minimum elevation drop used for Conduit CDT-39
  WARNING 04: minimum elevation drop used for Conduit CDT-41
  WARNING 04: minimum elevation drop used for Conduit CDT-43
  WARNING 04: minimum elevation drop used for Conduit CDT-45
  WARNING 04: minimum elevation drop used for Conduit CDT-47
  WARNING 04: minimum elevation drop used for Conduit CDT-49
  WARNING 04: minimum elevation drop used for Conduit CDT-89
  WARNING 04: minimum elevation drop used for Conduit E11140-E11139
  WARNING 04: minimum elevation drop used for Conduit E11143-E11210
  WARNING 04: minimum elevation drop used for Conduit E11145-E11143
  WARNING 04: minimum elevation drop used for Conduit E11147-E11145
  WARNING 04: minimum elevation drop used for Conduit E11150-E11147
  WARNING 04: minimum elevation drop used for Conduit E11187-E11185
  WARNING 04: minimum elevation drop used for Conduit E11210-E11212
  WARNING 04: minimum elevation drop used for Conduit E11212-E11140
  WARNING 04: minimum elevation drop used for Conduit E11442-E11441
  WARNING 08: elevation drop exceeds length for Conduit E12158-E12157
  WARNING 04: minimum elevation drop used for Conduit E12197-E12195
  
  *********************************************************
  NOTE: The summary statistics displayed in this report are
  based on results found at every computational time step,  
  not just on results from each reporting time step.
  *********************************************************
  
  ****************
  Analysis Options
  ****************
  Flow Units ............... CFS
  Process Models:
    Rainfall/Runoff ........ YES
    RDII ................... NO
    Snowmelt ............... NO
    Groundwater ............ NO
    Flow Routing ........... YES
    Ponding Allowed ........ YES
    Water Quality .......... NO
  Infiltration Method ...... HORTON
  Flow Routing Method ...... DYNWAVE
  Surcharge Method ......... EXTRAN
  Starting Date ............ 01/01/2002 00:00:00
  Ending Date .............. 01/01/2002 16:00:00
  Antecedent Dry Days ...... 0.0
  Report Time Step ......... 00:15:00
  Wet Time Step ............ 00:15:00
  Dry Time Step ............ 00:15:00
  Routing Time Step ........ 5.00 sec
  Variable Time Step ....... NO
  Maximum Trials ........... 8
  Number of Threads ........ 1
  Head Tolerance ........... 0.001000 ft
  
  
  **************************        Volume         Depth
  Runoff Quantity Continuity     acre-feet        inches
  **************************     ---------       -------
  Total Precipitation ......       110.150         7.000
  Evaporation Loss .........         0.000         0.000
  Infiltration Loss ........        35.581         2.261
  Surface Runoff ...........        76.866         4.885
  Final Storage ............         0.336         0.021
  Continuity Error (%) .....        -2.390
  
  
  **************************        Volume        Volume
  Flow Routing Continuity        acre-feet      10^6 gal
  **************************     ---------     ---------
  Dry Weather Inflow .......         0.000         0.000
  Wet Weather Inflow .......        76.863        25.047
  Groundwater Inflow .......         0.000         0.000
  RDII Inflow ..............         0.000         0.000
  External Inflow ..........         0.000         0.000
  External Outflow .........         0.000         0.000
  Flooding Loss ............        76.174        24.822
  Evaporation Loss .........         0.000         0.000
  Exfiltration Loss ........         0.000         0.000
  Initial Stored Volume ....         0.000         0.000
  Final Stored Volume ......         0.636         0.207
  Continuity Error (%) .....         0.069
  
  
  *************************
  Highest Continuity Errors
  *************************
  Node F1142 (54.69%)
  Node JCT-32 (45.25%)
  Node JCT-12 (42.38%)
  Node E1156 (34.70%)
  Node JCT-34 (30.48%)
  
  
  ********************************
  Highest Flow Instability Indexes
  ********************************
  Link F11110-F11109 (12)
  Link F11109-F11108 (2)
  Link E1183-E1182 (1)
  
  
  *************************
  Routing Time Step Summary
  *************************
  Minimum Time Step           :     4.00 sec
  Average Time Step           :     5.00 sec
  Maximum Time Step           :     5.00 sec
  Percent in Steady State     :     0.00
  Average Iterations per Step :     2.10
  Percent Not Converging      :     0.86
  
  
  ***************************
  Subcatchment Runoff Summary
  ***************************
  
  ------------------------------------------------------------------------------------------------------------------------------
                            Total      Total      Total      Total     Imperv       Perv      Total       Total     Peak  Runoff
                           Precip      Runon       Evap      Infil     Runoff     Runoff     Runoff      Runoff   Runoff   Coeff
  Subcatchment                 in         in         in         in         in         in         in    10^6 gal      CFS
  ------------------------------------------------------------------------------------------------------------------------------
  SUB-10                     7.00       0.00       0.00       2.26       2.81       2.08       4.89        0.51     6.51   0.699
  SUB-100                    7.00       0.00       0.00       2.24       2.83       2.09       4.92        0.22     2.88   0.703
  SUB-102                    7.00       0.00       0.00       2.25       2.82       2.09       4.90        0.40     5.16   0.700
  SUB-104                    7.00       0.00       0.00       2.23       2.84       2.10       4.94        0.09     1.19   0.705
  SUB-106                    7.00       0.00       0.00       2.24       2.83       2.10       4.93        0.15     1.86   0.705
  SUB-108                    7.00       0.00       0.00       2.23       2.83       2.10       4.93        0.04     0.56   0.704
  SUB-110                    7.00       0.00       0.00       2.22       2.81       2.10       4.91        0.01     0.17   0.701
  SUB-112                    7.00       0.00       0.00       2.24       2.83       2.10       4.93        0.18     2.29   0.704
  SUB-114                    7.00       0.00       0.00       2.22       2.81       2.10       4.90        0.01     0.13   0.701
  SUB-116                    7.00       0.00       0.00       2.23       2.84       2.10       4.94        0.10     1.33   0.705
  SUB-118                    7.00       0.00       0.00       2.26       2.81       2.08       4.89        0.54     7.00   0.698
  SUB-12                     7.00       0.00       0.00       2.23       2.82       2.10       4.92        0.02     0.30   0.703
  SUB-120                    7.00       0.00       0.00       2.24       2.83       2.10       4.93        0.15     1.90   0.704
  SUB-122                    7.00       0.00       0.00       2.23       2.82       2.10       4.92        0.03     0.43   0.704
  SUB-124                    7.00       0.00       0.00       2.23       2.83       2.10       4.93        0.04     0.50   0.704
  SUB-126                    7.00       0.00       0.00       2.23       2.84       2.10       4.94        0.06     0.82   0.705
  SUB-128                    7.00       0.00       0.00       2.23       2.84       2.10       4.94        0.07     0.89   0.705
  SUB-130                    7.00       0.00       0.00       2.23       2.84       2.10       4.94        0.11     1.37   0.705
  SUB-132                    7.00       0.00       0.00       2.22       2.81       2.10       4.91        0.02     0.25   0.702
  SUB-134                    7.00       0.00       0.00       2.22       2.81       2.10       4.91        0.02     0.20   0.702
  SUB-136                    7.00       0.00       0.00       2.23       2.83       2.10       4.93        0.05     0.69   0.705
  SUB-138                    7.00       0.00       0.00       2.23       2.82       2.10       4.92        0.02     0.28   0.702
  SUB-14                     7.00       0.00       0.00       2.22       2.80       2.09       4.89        0.00     0.02   0.699
  SUB-140                    7.00       0.00       0.00       2.24       2.84       2.10       4.93        0.11     1.44   0.705
  SUB-142                    7.00       0.00       0.00       2.23       2.84       2.10       4.94        0.10     1.28   0.705
  SUB-144                    7.00       0.00       0.00       2.27       2.80       2.07       4.87        0.81    10.52   0.696
  SUB-146                    7.00       0.00       0.00       2.26       2.81       2.08       4.89        0.51     6.62   0.699
  SUB-148                    7.00       0.00       0.00       2.23       2.83       2.10       4.93        0.04     0.50   0.704
  SUB-150                    7.00       0.00       0.00       2.24       2.83       2.10       4.93        0.17     2.15   0.704
  SUB-152                    7.00       0.00       0.00       2.22       2.82       2.10       4.91        0.02     0.26   0.702
  SUB-154                    7.00       0.00       0.00       2.23       2.84       2.10       4.94        0.08     1.03   0.705
  SUB-156                    7.00       0.00       0.00       2.24       2.83       2.10       4.93        0.14     1.83   0.705
  SUB-158                    7.00       0.00       0.00       2.23       2.84       2.10       4.94        0.09     1.18   0.705
  SUB-16                     7.00       0.00       0.00       2.25       2.82       2.09       4.91        0.35     4.57   0.701
  SUB-160                    7.00       0.00       0.00       2.22       2.81       2.10       4.91        0.01     0.15   0.701
  SUB-162                    7.00       0.00       0.00       2.24       2.83       2.10       4.93        0.17     2.20   0.704
  SUB-164                    7.00       0.00       0.00       2.24       2.83       2.09       4.92        0.21     2.76   0.703
  SUB-166                    7.00       0.00       0.00       2.25       2.82       2.09       4.92        0.25     3.26   0.702
  SUB-168                    7.00       0.00       0.00       2.23       2.83       2.10       4.93        0.05     0.64   0.705
  SUB-170                    7.00       0.00       0.00       2.22       2.81       2.10       4.91        0.01     0.15   0.701
  SUB-172                    7.00       0.00       0.00       2.23       2.84       2.10       4.94        0.07     0.87   0.705
  SUB-174                    7.00       0.00       0.00       2.23       2.84       2.10       4.94        0.09     1.18   0.705
  SUB-176                    7.00       0.00       0.00       2.24       2.83       2.10       4.93        0.17     2.20   0.704
  SUB-178                    7.00       0.00       0.00       2.22       2.80       2.10       4.90        0.01     0.10   0.701
  SUB-18                     7.00       0.00       0.00       2.24       2.83       2.09       4.92        0.24     3.13   0.703
  SUB-180                    7.00       0.00       0.00       2.22       2.81       2.10       4.90        0.01     0.11   0.701
  SUB-182                    7.00       0.00       0.00       2.24       2.83       2.09       4.93        0.19     2.38   0.704
  SUB-184                    7.00       0.00       0.00       2.25       2.82       2.09       4.91        0.29     3.66   0.702
  SUB-186                    7.00       0.00       0.00       2.29       2.78       2.04       4.82        1.64    21.05   0.689
  SUB-188                    7.00       0.00       0.00       2.24       2.83       2.09       4.92        0.20     2.50   0.703
  SUB-190                    7.00       0.00       0.00       2.24       2.83       2.09       4.92        0.21     2.71   0.703
  SUB-192                    7.00       0.00       0.00       2.23       2.84       2.10       4.94        0.07     0.88   0.705
  SUB-194                    7.00       0.00       0.00       2.24       2.83       2.09       4.92        0.21     2.63   0.703
  SUB-196                    7.00       0.00       0.00       2.22       2.80       2.10       4.90        0.01     0.08   0.700
  SUB-198                    7.00       0.00       0.00       2.22       2.81       2.10       4.91        0.02     0.20   0.701
  SUB-20                     7.00       0.00       0.00       2.24       2.84       2.10       4.93        0.11     1.46   0.705
  SUB-200                    7.00       0.00       0.00       2.24       2.84       2.10       4.93        0.11     1.43   0.705
  SUB-202                    7.00       0.00       0.00       2.22       2.81       2.10       4.91        0.02     0.21   0.702
  SUB-204                    7.00       0.00       0.00       2.23       2.84       2.10       4.94        0.11     1.40   0.705
  SUB-206                    7.00       0.00       0.00       2.22       2.81       2.10       4.91        0.01     0.17   0.701
  SUB-208                    7.00       0.00       0.00       2.25       2.82       2.09       4.91        0.29     3.71   0.702
  SUB-210                    7.00       0.00       0.00       2.24       2.84       2.10       4.93        0.13     1.66   0.705
  SUB-212                    7.00       0.00       0.00       2.23       2.84       2.10       4.94        0.08     1.01   0.705
  SUB-214                    7.00       0.00       0.00       2.24       2.83       2.10       4.93        0.15     1.87   0.704
  SUB-216                    7.00       0.00       0.00       2.24       2.84       2.10       4.93        0.13     1.62   0.705
  SUB-218                    7.00       0.00       0.00       2.24       2.83       2.09       4.92        0.25     3.24   0.702
  SUB-22                     7.00       0.00       0.00       2.24       2.83       2.09       4.92        0.25     3.21   0.702
  SUB-220                    7.00       0.00       0.00       2.25       2.82       2.09       4.91        0.29     3.72   0.702
  SUB-222                    7.00       0.00       0.00       2.23       2.83       2.10       4.93        0.05     0.65   0.705
  SUB-224                    7.00       0.00       0.00       2.24       2.83       2.09       4.92        0.22     2.78   0.703
  SUB-226                    7.00       0.00       0.00       2.26       2.80       2.08       4.88        0.67     8.67   0.697
  SUB-228                    7.00       0.00       0.00       2.25       2.82       2.09       4.91        0.28     3.64   0.702
  SUB-230                    7.00       0.00       0.00       2.24       2.83       2.09       4.92        0.24     3.09   0.703
  SUB-232                    7.00       0.00       0.00       2.24       2.84       2.10       4.93        0.14     1.74   0.705
  SUB-234                    7.00       0.00       0.00       2.23       2.83       2.10       4.93        0.04     0.45   0.704
  SUB-236                    7.00       0.00       0.00       2.25       2.82       2.09       4.91        0.33     4.21   0.701
  SUB-24                     7.00       0.00       0.00       2.23       2.84       2.10       4.94        0.08     1.07   0.705
  SUB-26                     7.00       0.00       0.00       2.23       2.84       2.10       4.94        0.10     1.24   0.705
  SUB-28                     7.00       0.00       0.00       2.24       2.83       2.10       4.93        0.17     2.21   0.704
  SUB-30                     7.00       0.00       0.00       2.24       2.83       2.10       4.93        0.17     2.23   0.704
  SUB-32                     7.00       0.00       0.00       2.23       2.84       2.10       4.94        0.11     1.35   0.705
  SUB-34                     7.00       0.00       0.00       2.23       2.84       2.10       4.94        0.07     0.87   0.705
  SUB-36                     7.00       0.00       0.00       2.24       2.84       2.10       4.93        0.12     1.59   0.705
  SUB-38                     7.00       0.00       0.00       2.23       2.82       2.10       4.92        0.03     0.38   0.703
  SUB-40                     7.00       0.00       0.00       2.22       2.82       2.10       4.92        0.02     0.27   0.702
  SUB-42                     7.00       0.00       0.00       2.23       2.83       2.10       4.93        0.04     0.52   0.704
  SUB-44                     7.00       0.00       0.00       2.23       2.84       2.10       4.94        0.06     0.82   0.705
  SUB-46                     7.00       0.00       0.00       2.25       2.81       2.08       4.90        0.43     5.49   0.700
  SUB-48                     7.00       0.00       0.00       2.26       2.80       2.08       4.88        0.65     8.36   0.697
  SUB-50                     7.00       0.00       0.00       2.28       2.79       2.07       4.86        0.99    12.74   0.694
  SUB-52                     7.00       0.00       0.00       2.25       2.82       2.09       4.92        0.25     3.27   0.702
  SUB-54                     7.00       0.00       0.00       2.23       2.82       2.10       4.92        0.02     0.29   0.702
  SUB-56                     7.00       0.00       0.00       2.23       2.84       2.10       4.94        0.07     0.83   0.705
  SUB-58                     7.00       0.00       0.00       2.23       2.84       2.10       4.94        0.06     0.82   0.705
  SUB-60                     7.00       0.00       0.00       2.23       2.83       2.10       4.93        0.05     0.60   0.705
  SUB-62                     7.00       0.00       0.00       2.27       2.79       2.07       4.86        0.97    12.56   0.694
  SUB-64                     7.00       0.00       0.00       2.22       2.80       2.10       4.90        0.00     0.05   0.701
  SUB-66                     7.00       0.00       0.00       2.22       2.81       2.10       4.91        0.01     0.14   0.701
  SUB-68                     7.00       0.00       0.00       2.23       2.84       2.10       4.94        0.07     0.92   0.705
  SUB-70                     7.00       0.00       0.00       2.24       2.84       2.10       4.93        0.11     1.46   0.705
  SUB-72                     7.00       0.00       0.00       2.22       2.80       2.10       4.90        0.01     0.07   0.700
  SUB-74                     7.00       0.00       0.00       2.22       2.81       2.10       4.91        0.01     0.16   0.701
  SUB-76                     7.00       0.00       0.00       2.22       2.81       2.10       4.91        0.01     0.19   0.702
  SUB-78                     7.00       0.00       0.00       2.22       2.80       2.10       4.90        0.00     0.03   0.700
  SUB-80                     7.00       0.00       0.00       2.23       2.82       2.10       4.92        0.02     0.29   0.702
  SUB-82                     7.00       0.00       0.00       2.24       2.83       2.09       4.92        0.23     2.95   0.703
  SUB-84                     7.00       0.00       0.00       2.28       2.79       2.06       4.85        1.17    15.15   0.693
  SUB-86                     7.00       0.00       0.00       2.26       2.81       2.08       4.90        0.46     5.95   0.699
  SUB-88                     7.00       0.00       0.00       2.27       2.80       2.07       4.87        0.85    11.04   0.695
  SUB-90                     7.00       0.00       0.00       2.29       2.78       2.05       4.83        1.45    18.74   0.690
  SUB-92                     7.00       0.00       0.00       2.29       2.78       2.05       4.83        1.47    18.95   0.690
  SUB-94                     7.00       0.00       0.00       2.28       2.79       2.06       4.85        1.23    15.87   0.692
  SUB-96                     7.00       0.00       0.00       2.23       2.84       2.10       4.94        0.09     1.18   0.705
  SUB-98                     7.00       0.00       0.00       2.23       2.83       2.10       4.93        0.05     0.61   0.705
  
  
  ******************
  Node Depth Summary
  ******************
  
  ---------------------------------------------------------------------------------
                                 Average  Maximum  Maximum  Time of Max    Reported
                                   Depth    Depth      HGL   Occurrence   Max Depth
  Node                 Type         Feet     Feet     Feet  days hr:min        Feet
  ---------------------------------------------------------------------------------
  E11100               JUNCTION     0.22     0.68     2.96     0  09:00        0.68
  E11101               JUNCTION     0.48     1.60     3.86     0  09:00        1.60
  E11102               JUNCTION     0.18     0.58     5.65     0  09:00        0.58
  E11104               JUNCTION     0.06     0.19     5.77     0  09:00        0.19
  E11106               JUNCTION     0.03     0.10     7.70     0  09:00        0.10
  E11112               JUNCTION     0.07     0.25     4.03     0  09:00        0.25
  E11113               JUNCTION     0.00     0.00     4.96     0  00:00        0.00
  E11114               JUNCTION     0.91     1.00     1.00     0  01:35        1.00
  E11115               JUNCTION     0.18     0.41     3.95     0  08:19        0.41
  E11116               JUNCTION     0.57     0.84     4.02     0  07:19        0.83
  E11117               JUNCTION     0.73     1.00     4.02     0  01:38        1.00
  E11119               JUNCTION     0.91     1.00     1.00     0  01:35        1.00
  E11120               JUNCTION     0.20     0.56     4.87     0  08:46        0.56
  E11121               JUNCTION     0.45     1.00     5.27     0  08:04        1.00
  E11122               JUNCTION     0.30     0.47     1.96     0  07:28        0.47
  E11123               JUNCTION     0.36     0.56     5.49     0  07:22        0.55
  E11124               JUNCTION     0.67     1.00     6.25     0  03:21        1.00
  E11125               JUNCTION     0.72     1.31     6.71     0  08:16        1.31
  E11126               JUNCTION     0.47     0.79     6.66     0  08:17        0.79
  E11127               JUNCTION     0.80     1.00     6.60     0  01:24        1.00
  E11128               JUNCTION     0.57     1.00     7.67     0  03:18        1.00
  E11129               JUNCTION     5.85     6.56    12.68     0  09:00        6.56
  E11130               JUNCTION     6.05     6.57    13.02     0  09:00        6.57
  E11131               JUNCTION     0.92     1.00     1.00     0  01:32        1.00
  E11132               JUNCTION     0.15     0.49     4.49     0  09:00        0.49
  E11133               JUNCTION     0.92     1.00     1.00     0  01:32        1.00
  E11134               JUNCTION     0.14     0.46     5.45     0  09:00        0.46
  E11135               JUNCTION     0.23     0.51     2.00     0  09:00        0.51
  E11136               JUNCTION     0.33     0.74     3.92     0  09:00        0.74
  E11137               JUNCTION     0.70     1.00     3.82     0  01:26        1.00
  E11138               JUNCTION     0.00     0.00     0.00     0  00:00        0.00
  E11139               JUNCTION     0.93     1.00     1.00     0  01:20        1.00
  E11140               JUNCTION     0.93     1.00     1.00     0  01:20        1.00
  E11141               JUNCTION     4.08     4.74     8.92     0  09:00        4.74
  E11142               JUNCTION     7.75     8.58    12.71     0  09:00        8.58
  E11143               JUNCTION     0.92     1.00     1.00     0  01:20        1.00
  E11144               JUNCTION     3.12     3.49     6.92     0  09:00        3.49
  E11145               JUNCTION     0.93     1.00     1.00     0  01:20        1.00
  E11146               JUNCTION     4.68     5.19    10.13     0  09:00        5.19
  E11147               JUNCTION     0.93     1.00     1.00     0  01:21        1.00
  E11148               JUNCTION     3.71     4.05     7.99     0  09:00        4.05
  E11149               JUNCTION     5.44     5.95    11.71     0  09:00        5.95
  E11150               JUNCTION     0.93     1.00     1.00     0  01:21        1.00
  E11151               JUNCTION     0.06     0.21     6.08     0  09:00        0.21
  E11152               JUNCTION     2.20     2.76     5.05     0  01:03        2.41
  E11171               JUNCTION     3.12     3.50     7.01     0  09:00        3.50
  E11172               JUNCTION     4.38     4.82     9.08     0  08:45        4.82
  E11173               JUNCTION     4.35     4.75     9.29     0  08:30        4.75
  E11174               JUNCTION     0.00     0.00     1.99     0  00:00        0.00
  E11175               JUNCTION     0.06     0.21     2.50     0  09:00        0.21
  E11176               JUNCTION     0.15     0.49     4.02     0  09:00        0.49
  E11177               JUNCTION     3.54     3.99     7.43     0  09:00        3.99
  E11178               JUNCTION     2.03     2.98     4.96     0  01:03        2.54
  E11179               JUNCTION     2.40     3.63     6.19     0  01:02        2.71
  E11180               JUNCTION     4.51     4.98     9.72     0  09:00        4.98
  E11181               JUNCTION     0.93     1.00     1.00     0  01:03        1.00
  E11182               JUNCTION     4.45     4.90     9.59     0  09:00        4.90
  E11183               JUNCTION     2.46     2.82     5.56     0  09:00        2.82
  E11184               JUNCTION     5.11     5.82    11.13     0  09:00        5.82
  E11185               JUNCTION     0.93     1.00     1.00     0  01:16        1.00
  E11186               JUNCTION     4.18     4.52     9.03     0  08:30        4.52
  E11187               JUNCTION     0.93     1.00     1.00     0  01:17        1.00
  E11188               JUNCTION     3.91     4.27     8.41     0  08:45        4.27
  E11210               JUNCTION     0.92     1.00     1.00     0  01:20        1.00
  E11211               JUNCTION     4.33     4.73     9.30     0  09:00        4.73
  E11212               JUNCTION     0.92     1.00     1.00     0  01:20        1.00
  E11213               JUNCTION     0.04     0.12     4.72     0  09:00        0.12
  E11214               JUNCTION     0.92     1.00     1.00     0  01:22        1.00
  E11215               JUNCTION     0.92     1.00     3.28     0  01:19        1.00
  E11216               JUNCTION     0.49     1.00     4.19     0  03:35        1.00
  E11217               JUNCTION     0.51     1.00     4.46     0  03:23        1.00
  E11441               JUNCTION     0.95     1.21     1.21     0  08:16        1.20
  E11442               JUNCTION     0.93     1.00     1.00     0  01:06        1.00
  E11443               JUNCTION     0.45     1.00     2.56     0  08:02        1.00
  E11444               JUNCTION     0.10     0.35     3.05     0  08:35        0.35
  E11446               JUNCTION     0.42     0.89     2.55     0  09:00        0.89
  E11447               JUNCTION     0.55     1.00     3.16     0  03:16        1.00
  E1156                JUNCTION     0.88     1.00     1.00     0  02:19        1.00
  E1157                JUNCTION     0.11     0.38     2.01     0  08:48        0.38
  E1160                JUNCTION     0.15     0.49     2.92     0  08:48        0.49
  E1175                JUNCTION     0.00     0.00    99.52     0  00:00        0.00
  E1176                JUNCTION     0.00     0.00    99.53     0  00:00        0.00
  E1177                JUNCTION     0.93     1.00     2.57     0  01:19        1.00
  E1178                JUNCTION     0.00     0.00    99.88     0  00:00        0.00
  E1179                JUNCTION     0.86     1.00     3.73     0  03:43        1.00
  E1180                JUNCTION     0.90     1.00     2.08     0  03:06        1.00
  E1181                JUNCTION     3.29     3.56     6.21     0  01:33        3.56
  E1182                JUNCTION     2.08     3.04     6.20     0  09:00        3.04
  E1183                JUNCTION     0.80     1.00     5.50     0  01:04        1.00
  E1184                JUNCTION     5.33     6.36    11.72     0  09:00        6.36
  E1185                JUNCTION     5.67     6.74    12.50     0  08:35        6.74
  E1186                JUNCTION     5.70     6.39    12.33     0  09:00        6.39
  E1189                JUNCTION     0.92     1.00     1.00     0  01:38        1.00
  E1193                JUNCTION     0.31     0.96     2.18     0  09:00        0.96
  E1194                JUNCTION     0.33     1.00     2.96     0  08:13        1.00
  E1196                JUNCTION     0.34     0.40     1.02     0  01:48        0.39
  E1197                JUNCTION     0.92     1.00     1.00     0  01:46        1.00
  E1198                JUNCTION     0.91     1.00     1.00     0  01:45        1.00
  E1199                JUNCTION     0.91     1.00     1.00     0  01:42        1.00
  E12153               JUNCTION     4.77     5.24    10.30     0  09:00        5.24
  E12154               JUNCTION     5.64     6.18    12.40     0  08:15        6.18
  E12155               JUNCTION     6.29     6.87    13.56     0  08:30        6.87
  E12156               JUNCTION     7.44     8.05    15.99     0  08:30        8.05
  E12157               JUNCTION     0.93     1.00     1.00     0  01:16        1.00
  E12158               JUNCTION     7.39     7.98    15.76     0  08:30        7.98
  E12159               JUNCTION     4.97     5.45    11.03     0  09:00        5.45
  E12160               JUNCTION     6.90     7.59    14.72     0  09:00        7.59
  E12161               JUNCTION     8.10     8.77    17.35     0  08:15        8.77
  E12162               JUNCTION     5.80     6.45    12.48     0  08:15        6.45
  E12163               JUNCTION     6.02     6.80    12.67     0  08:04        6.80
  E12164               JUNCTION     8.36     9.08    17.95     0  09:00        9.08
  E12165               JUNCTION     6.69     7.17    13.34     0  01:15        7.17
  E12166               JUNCTION     6.40     7.22    13.82     0  09:00        7.22
  E12167               JUNCTION     6.58     7.52    14.02     0  09:00        7.52
  E12168               JUNCTION     6.45     7.12    13.97     0  08:02        7.12
  E12169               JUNCTION     6.87     7.58    14.09     0  08:01        7.58
  E12170               JUNCTION     8.02     8.73    17.18     0  09:00        8.73
  E12189               JUNCTION     2.99     3.85     6.89     0  01:03        3.38
  E12190               JUNCTION     4.87     5.70    10.51     0  08:13        5.70
  E12191               JUNCTION     5.87     6.83    12.64     0  08:04        6.83
  E12192               JUNCTION     6.05     6.90    13.17     0  09:00        6.90
  E12193               JUNCTION     6.62     7.69    14.41     0  08:05        7.69
  E12194               JUNCTION     7.24     8.01    15.60     0  09:00        8.01
  E12195               JUNCTION     0.93     1.00     1.00     0  01:14        1.00
  E12196               JUNCTION     4.12     4.50     8.94     0  09:00        4.50
  E12197               JUNCTION     0.93     1.00     1.00     0  01:14        1.00
  E12198               JUNCTION     4.22     4.69     9.36     0  09:00        4.69
  E12199               JUNCTION     3.17     3.92     7.21     0  01:02        3.60
  E12200               JUNCTION     4.48     5.62    10.18     0  09:00        5.62
  E12201               JUNCTION     4.82     5.53    10.86     0  09:00        5.53
  E12202               JUNCTION     0.93     1.00     1.00     0  01:08        1.00
  E12204               JUNCTION     3.44     3.77     7.18     0  07:13        3.77
  E12205               JUNCTION     4.07     4.75     8.50     0  01:42        4.75
  E12206               JUNCTION     4.13     4.86     8.77     0  03:28        4.86
  E12207               JUNCTION     4.51     5.46     9.95     0  08:39        5.46
  E12208               JUNCTION     6.18     6.78    13.29     0  08:45        6.78
  F11107               JUNCTION     0.00     0.00     7.33     0  00:00        0.00
  F11108               JUNCTION     0.89     0.98     8.83     0  01:08        0.95
  F11109               JUNCTION     0.93     1.00     8.80     0  01:08        1.00
  F11110               JUNCTION     0.56     0.67     8.85     0  10:15        0.64
  F1142                JUNCTION     0.88     1.00     1.00     0  02:18        1.00
  F1143                JUNCTION     0.00     0.00     1.31     0  00:00        0.00
  F1144                JUNCTION     0.24     0.77     2.75     0  09:00        0.77
  F1145                JUNCTION     0.20     0.66     2.84     0  09:00        0.66
  F1146                JUNCTION     2.68     3.38     6.07     0  09:00        3.38
  F1148                JUNCTION     0.92     1.00     1.00     0  01:21        1.00
  F1149                JUNCTION     0.19     0.62     4.21     0  09:00        0.62
  F1150                JUNCTION     0.06     0.19     4.09     0  09:00        0.19
  F1154                JUNCTION     4.19     4.72     9.07     0  09:00        4.72
  F1158                JUNCTION     0.11     0.37     4.10     0  09:00        0.37
  F1159                JUNCTION     0.21     0.66     4.69     0  09:00        0.66
  F1161                JUNCTION     0.20     0.67     3.74     0  08:47        0.67
  F1162                JUNCTION     0.15     0.56     4.04     0  08:17        0.56
  F1163                JUNCTION     3.65     4.30     7.19     0  08:17        4.30
  F1164                JUNCTION     5.57     6.35    12.15     0  08:45        6.35
  F1165                JUNCTION     6.11     7.20    12.88     0  08:14        7.20
  F1166                JUNCTION     6.98     7.60    14.06     0  09:00        7.60
  F1167                JUNCTION     2.04     2.30     6.88     0  08:07        2.27
  F1168                JUNCTION     0.91     1.00     6.80     0  01:31        1.00
  F1169                JUNCTION     6.36     6.94    13.68     0  09:00        6.94
  F1170                JUNCTION     3.57     3.86     8.03     0  09:00        3.86
  F1171                JUNCTION     0.93     1.00     1.00     0  01:19        1.00
  F1172                JUNCTION     8.23     8.91    17.64     0  08:30        8.91
  F1173                JUNCTION     8.55     9.33    17.79     0  09:00        9.33
  JCT-10               JUNCTION     0.91     1.00     1.00     0  01:43        1.00
  JCT-12               JUNCTION     0.91     1.00     1.00     0  01:43        1.00
  JCT-14               JUNCTION     0.91     1.00     1.00     0  01:43        1.00
  JCT-16               JUNCTION     0.91     1.00     1.00     0  01:43        1.00
  JCT-18               JUNCTION     0.92     1.00     1.00     0  01:37        1.00
  JCT-20               JUNCTION     0.91     1.00     1.00     0  02:17        1.00
  JCT-22               JUNCTION     0.90     1.00     1.00     0  02:17        1.00
  JCT-24               JUNCTION     0.90     1.00     1.00     0  02:19        1.00
  JCT-26               JUNCTION     0.89     1.00     1.00     0  02:15        1.00
  JCT-28               JUNCTION     0.91     1.00     1.00     0  02:18        1.00
  JCT-30               JUNCTION     0.73     1.00     1.00     0  08:12        1.00
  JCT-32               JUNCTION     0.73     1.00     1.00     0  08:12        1.00
  JCT-34               JUNCTION     0.73     1.00     1.00     0  08:12        1.00
  JCT-36               JUNCTION     0.91     1.00     1.00     0  01:38        1.00
  JCT-38               JUNCTION     0.91     1.00     1.00     0  01:39        1.00
  JCT-40               JUNCTION     0.91     1.00     1.00     0  01:39        1.00
  F1141                OUTFALL      0.00     0.00    99.82     0  00:00        0.00
  
  
  *******************
  Node Inflow Summary
  *******************
  
  -------------------------------------------------------------------------------------------------
                                  Maximum  Maximum                  Lateral       Total        Flow
                                  Lateral    Total  Time of Max      Inflow      Inflow     Balance
                                   Inflow   Inflow   Occurrence      Volume      Volume       Error
  Node                 Type           CFS      CFS  days hr:min    10^6 gal    10^6 gal     Percent
  -------------------------------------------------------------------------------------------------
  E11100               JUNCTION      0.38     3.28     0  09:00      0.0294       0.256      -0.055
  E11101               JUNCTION      0.00     2.91     0  09:00           0       0.227       0.271
  E11102               JUNCTION      2.63     2.63     0  09:00       0.205       0.205      -0.158
  E11104               JUNCTION      0.08     0.28     0  09:00     0.00637      0.0216      -0.581
  E11106               JUNCTION      0.20     0.20     0  09:00      0.0152      0.0152       0.000
  E11112               JUNCTION      0.52     0.52     0  09:00      0.0407      0.0407      -0.292
  E11113               JUNCTION      0.00     0.00     0  00:00           0           0       0.000 gal
  E11114               JUNCTION      0.00     1.47     0  08:19           0       0.193       3.748
  E11115               JUNCTION      1.07     1.48     0  08:15      0.0833        0.18      -0.126
  E11116               JUNCTION      0.00     0.84     0  07:15           0      0.0981       1.386
  E11117               JUNCTION      3.21     3.21     0  09:00        0.25        0.25       0.319
  E11119               JUNCTION      0.00     4.32     0  08:46           0       0.597       1.189
  E11120               JUNCTION      1.46     3.09     0  08:45       0.114        0.32      -0.056
  E11121               JUNCTION      3.13     3.13     0  09:00       0.244       0.244       0.006
  E11122               JUNCTION      0.00     2.48     0  07:23           0       0.555       0.033
  E11123               JUNCTION      0.00     2.47     0  07:21           0       0.555       0.029
  E11124               JUNCTION      1.24     4.45     0  08:17      0.0967       0.643       0.071
  E11125               JUNCTION      0.10     4.03     0  09:00     0.00801       0.566       0.054
  E11126               JUNCTION      0.11     1.17     0  01:24     0.00832       0.276       0.168
  E11127               JUNCTION      2.38     8.21     0  09:00       0.186        1.16       0.113
  E11128               JUNCTION     21.05    21.05     0  09:00        1.64        1.64      -0.001
  E11129               JUNCTION      3.66     3.93     0  09:00       0.285       0.306       0.011
  E11130               JUNCTION      0.26     0.26     0  09:00      0.0205      0.0205       0.158
  E11131               JUNCTION      0.00     3.47     0  08:47           0       0.459       1.561
  E11132               JUNCTION      2.23     2.23     0  09:00       0.174       0.174      -0.103
  E11133               JUNCTION      0.00     3.68     0  09:00           0       0.372       1.942
  E11134               JUNCTION      2.21     2.21     0  09:00       0.172       0.172      -0.098
  E11135               JUNCTION      0.00     2.95     0  09:00           0       0.399      -0.015
  E11136               JUNCTION      4.21     4.21     0  09:00       0.327       0.432      -0.022
  E11137               JUNCTION      6.51     7.77     0  09:00       0.505       0.538       0.100
  E11138               JUNCTION      0.00     0.00     0  00:00           0           0       0.000 gal
  E11139               JUNCTION      0.00     1.49     0  09:00           0        0.21       1.129
  E11140               JUNCTION      0.00    17.14     0  09:00           0        1.33       0.122
  E11141               JUNCTION     10.52    17.14     0  09:00       0.814        1.33       0.003
  E11142               JUNCTION      6.62     6.62     0  09:00       0.513       0.513       0.009
  E11143               JUNCTION      0.00     2.27     0  08:30           0       0.188       1.864
  E11144               JUNCTION      1.03     3.18     0  09:00      0.0809       0.248      -0.013
  E11145               JUNCTION      0.00     3.18     0  08:45           0       0.258       0.990
  E11146               JUNCTION      2.15     2.15     0  09:00       0.168       0.168       0.017
  E11147               JUNCTION      0.00     1.49     0  01:03           0       0.116       3.200
  E11148               JUNCTION      0.15     1.33     0  09:00      0.0115       0.104      -0.074
  E11149               JUNCTION      1.18     1.18     0  09:00      0.0924      0.0924      -0.013
  E11150               JUNCTION      0.00     6.27     0  01:03           0       0.177       1.422
  E11151               JUNCTION      1.83     1.83     0  09:00       0.143       0.143       0.000
  E11152               JUNCTION      0.00     5.70     0  01:02           0      0.0284      -4.176
  E11171               JUNCTION      1.28     2.26     0  09:00         0.1       0.176      -0.006
  E11172               JUNCTION      0.69     0.97     0  08:45       0.054       0.076       0.161
  E11173               JUNCTION      0.28     0.28     0  08:30       0.022       0.022       0.087
  E11174               JUNCTION      0.00     0.00     0  00:00           0           0       0.000 gal
  E11175               JUNCTION      0.50     0.50     0  09:00      0.0387      0.0387      -0.037
  E11176               JUNCTION      0.89     4.52     0  01:03      0.0698       0.212       0.062
  E11177               JUNCTION      0.43     0.43     0  09:00      0.0339      0.0339       0.046
  E11178               JUNCTION      1.37    34.41     0  01:02       0.107       0.109      -0.147
  E11179               JUNCTION      0.25     2.15     0  09:00      0.0193       0.168      -3.565
  E11180               JUNCTION      1.90     1.90     0  09:00       0.148       0.148      -0.017
  E11181               JUNCTION      0.00    21.85     0  01:03           0       0.416       0.594
  E11182               JUNCTION      1.86     1.86     0  09:00       0.145       0.145      -0.042
  E11183               JUNCTION      0.00     7.00     0  09:00           0       0.543      -0.040
  E11184               JUNCTION      7.00     7.00     0  09:00       0.543       0.543      -0.010
  E11185               JUNCTION      0.00     5.36     0  09:00           0       0.454       0.556
  E11186               JUNCTION      0.20     0.20     0  08:30      0.0156      0.0156       0.024
  E11187               JUNCTION      0.00     6.39     0  01:03           0       0.396       0.592
  E11188               JUNCTION      1.19     1.19     0  08:45      0.0933      0.0933      -0.035
  E11210               JUNCTION      0.00     1.45     0  08:30           0       0.124       1.304
  E11211               JUNCTION      1.44     1.44     0  09:00       0.113       0.113      -0.017
  E11212               JUNCTION      0.00     1.09     0  01:20           0      0.0144      19.740
  E11213               JUNCTION      0.50     0.50     0  09:00      0.0391      0.0391      -0.043
  E11214               JUNCTION      0.00     0.50     0  09:00           0      0.0392       1.912
  E11215               JUNCTION      1.35     5.87     0  09:00       0.105       0.853       0.528
  E11216               JUNCTION      5.49     7.95     0  09:00       0.426       0.851       0.013
  E11217               JUNCTION      8.36     8.36     0  09:00       0.647       0.647      -0.018
  E11441               JUNCTION      0.82     4.01     0  09:00      0.0642       0.315       0.450
  E11442               JUNCTION      2.20     6.21     0  09:00       0.172       0.486       0.148
  E11443               JUNCTION     12.56    13.16     0  09:00       0.972        1.02      -0.010
  E11444               JUNCTION      0.60     0.60     0  08:30      0.0472      0.0472      -0.214
  E11446               JUNCTION      1.59     4.83     0  09:00       0.124       0.707      -0.015
  E11447               JUNCTION     12.74    12.74     0  09:00       0.986       0.986      -0.004
  E1156                JUNCTION      0.00     1.12     0  02:03           0      0.0205      53.133
  E1157                JUNCTION      0.00     1.73     0  08:18           0       0.119      -0.130
  E1160                JUNCTION      0.29     1.75     0  08:46      0.0223       0.137      -0.040
  E1175                JUNCTION      0.00     0.00     0  00:00           0           0       0.000 gal
  E1176                JUNCTION      0.00     0.00     0  00:00           0           0       0.000 gal
  E1177                JUNCTION      3.27     3.27     0  09:00       0.255       0.255       0.840
  E1178                JUNCTION      0.00     0.00     0  00:00           0           0       0.000 gal
  E1179                JUNCTION      0.16     0.16     0  08:45      0.0125      0.0125      20.503
  E1180                JUNCTION      0.29     0.29     0  08:45      0.0229      0.0229      10.234
  E1181                JUNCTION      0.45     4.82     0  01:37      0.0355      0.0471       0.000
  E1182                JUNCTION      1.74    13.97     0  09:00       0.136         1.1       0.053
  E1183                JUNCTION      3.09    17.05     0  09:00       0.241        1.33       0.001
  E1184                JUNCTION      0.00    12.19     0  09:00           0       0.954      -0.177
  E1185                JUNCTION      8.67     8.67     0  09:00       0.671       0.671      -0.001
  E1186                JUNCTION      3.64     3.64     0  09:00       0.283       0.283       0.024
  E1189                JUNCTION      0.00     4.84     0  09:00           0        0.41       1.765
  E1193                JUNCTION      0.83     4.84     0  09:00      0.0651       0.409      -0.013
  E1194                JUNCTION      4.57     4.57     0  09:00       0.355       0.355      -0.056
  E1196                JUNCTION      0.00     0.83     0  01:44           0       0.011      39.177
  E1197                JUNCTION      0.82     0.83     0  08:34      0.0644      0.0673       3.328
  E1198                JUNCTION      0.27     0.35     0  01:42       0.021      0.0252       9.672
  E1199                JUNCTION      0.00     4.83     0  09:00           0       0.707       1.031
  E12153               JUNCTION      0.00     1.91     0  09:00           0       0.149      -0.020
  E12154               JUNCTION      1.18     1.18     0  09:00      0.0924      0.0924      -0.019
  E12155               JUNCTION      0.17     0.73     0  08:30      0.0133      0.0568       0.007
  E12156               JUNCTION      0.56     0.56     0  08:30      0.0435      0.0435       0.101
  E12157               JUNCTION      0.00     6.30     0  09:00           0       0.563       0.795
  E12158               JUNCTION      0.87     0.87     0  08:30       0.068       0.068      -0.048
  E12159               JUNCTION      0.15     3.84     0  09:00      0.0117       0.366      -0.040
  E12160               JUNCTION      1.18     1.79     0  09:00      0.0924        0.14       0.022
  E12161               JUNCTION      0.61     0.61     0  09:00      0.0475      0.0475       0.056
  E12162               JUNCTION      0.64     1.90     0  09:00      0.0498       0.215       0.061
  E12163               JUNCTION      0.00     2.54     0  09:00           0       0.198       0.087
  E12164               JUNCTION      3.26     3.26     0  09:00       0.254       0.254      -0.063
  E12165               JUNCTION      0.00     4.45     0  09:00           0       0.409       0.396
  E12166               JUNCTION      0.00     3.73     0  09:00           0       0.353       0.011
  E12167               JUNCTION      2.76     3.73     0  09:00       0.215       0.354       0.048
  E12168               JUNCTION      0.00     0.97     0  08:02           0       0.139      -0.004
  E12169               JUNCTION      0.00     2.20     0  09:00           0       0.172       0.417
  E12170               JUNCTION      2.20     2.20     0  09:00       0.172       0.172      -0.031
  E12189               JUNCTION      0.00     9.36     0  08:13           0         1.2      -0.117
  E12190               JUNCTION      0.00     9.37     0  08:04           0         1.2      -0.009
  E12191               JUNCTION      0.00    11.23     0  09:00           0        1.25      -0.025
  E12192               JUNCTION      1.33    11.23     0  09:00       0.104        1.25      -0.003
  E12193               JUNCTION     11.04    16.98     0  09:00       0.854        1.32      -0.003
  E12194               JUNCTION      5.95     5.95     0  09:00       0.461       0.461       0.002
  E12195               JUNCTION      0.00    12.55     0  01:03           0        1.09       0.337
  E12196               JUNCTION      2.43     2.43     0  09:00       0.189       0.189      -0.065
  E12197               JUNCTION      0.00    21.36     0  09:00           0        1.66       0.306
  E12198               JUNCTION     15.15    15.15     0  09:00        1.17        1.17      -0.013
  E12199               JUNCTION      0.00     8.11     0  09:00           0       0.631      -0.186
  E12200               JUNCTION      2.95     8.11     0  09:00        0.23       0.631      -0.028
  E12201               JUNCTION      5.16     5.16     0  09:00       0.401       0.401       0.011
  E12202               JUNCTION      0.00    10.08     0  09:00           0        1.97       0.144
  E12204               JUNCTION      0.00     8.17     0  01:48           0        1.82      -0.006
  E12205               JUNCTION     18.74    30.49     0  09:00        1.45        3.48      -0.003
  E12206               JUNCTION     18.95    37.09     0  09:00        1.47        2.92       0.002
  E12207               JUNCTION     15.87    18.75     0  09:00        1.23        1.45       0.000
  E12208               JUNCTION      2.88     2.88     0  08:45       0.225       0.225      -0.015
  F11107               JUNCTION      0.00     0.00     0  00:00           0           0       0.000 gal
  F11108               JUNCTION      0.88     0.88     0  09:00      0.0685      0.0685       0.304
  F11109               JUNCTION      2.71     6.09     0  09:00       0.212       0.476       0.107
  F11110               JUNCTION      2.50     2.50     0  09:00       0.195       0.196       0.117
  F1142                JUNCTION      0.00     0.82     0  02:01           0      0.0126     120.721
  F1143                JUNCTION      0.00     0.00     0  00:00           0           0       0.000 gal
  F1144                JUNCTION      3.24     3.96     0  09:00       0.252       0.315      -0.071
  F1145                JUNCTION      0.00     3.72     0  09:00           0       0.289      -0.053
  F1146                JUNCTION      3.72     3.72     0  09:00       0.289       0.289       0.002
  F1148                JUNCTION      0.00     6.43     0  09:00           0       0.495       0.939
  F1149                JUNCTION      0.00     3.43     0  09:00           0       0.268      -0.064
  F1150                JUNCTION      0.65     0.65     0  09:00      0.0507      0.0507       0.000
  F1154                JUNCTION      2.78     2.78     0  09:00       0.217       0.217       0.002
  F1158                JUNCTION      0.30     1.22     0  09:00      0.0235      0.0956      -0.057
  F1159                JUNCTION      0.92     0.92     0  09:00       0.072       0.072      -0.121
  F1161                JUNCTION      1.46     1.46     0  08:45       0.114       0.114      -0.121
  F1162                JUNCTION      1.43     1.73     0  08:45       0.112       0.119      -0.101
  F1163                JUNCTION      0.00     5.66     0  08:06           0        0.35       2.066
  F1164                JUNCTION      1.62     4.31     0  08:45       0.126       0.348      -0.010
  F1165                JUNCTION      1.87     2.89     0  09:00       0.146       0.226       0.092
  F1166                JUNCTION      1.01     1.01     0  09:00      0.0793      0.0793       0.049
  F1167                JUNCTION      0.00     5.67     0  09:00           0       0.466       1.132
  F1168                JUNCTION      0.21     5.88     0  09:00      0.0161       0.476       0.156
  F1169                JUNCTION      1.66     1.66     0  09:00        0.13        0.13      -0.024
  F1170                JUNCTION      0.17     0.17     0  09:00      0.0134      0.0134      -0.166
  F1171                JUNCTION      0.00     5.28     0  09:00           0       0.411       0.956
  F1172                JUNCTION      1.40     1.40     0  08:30       0.109       0.109      -0.009
  F1173                JUNCTION      3.71     3.71     0  09:00       0.288       0.288      -0.021
  JCT-10               JUNCTION      0.87     0.88     0  08:30      0.0681      0.0719       3.465
  JCT-12               JUNCTION      0.00     0.77     0  01:42           0      0.0172      73.561
  JCT-14               JUNCTION      0.00     3.28     0  09:00           0       0.273       2.777
  JCT-16               JUNCTION      0.00     0.99     0  01:38           0      0.0552      14.582
  JCT-18               JUNCTION      0.00     5.93     0  08:06           0       0.842       0.871
  JCT-20               JUNCTION      0.00     1.59     0  01:38           0      0.0348      28.310
  JCT-22               JUNCTION      0.00     1.76     0  08:45           0        0.16       4.710
  JCT-24               JUNCTION      0.00     1.48     0  01:50           0      0.0888      12.260
  JCT-26               JUNCTION      0.02     0.21     0  01:40     0.00157      0.0072      54.062
  JCT-28               JUNCTION      0.82     0.82     0  08:30      0.0641      0.0672       3.729
  JCT-30               JUNCTION      0.03     0.05     0  08:08     0.00252     0.00474     110.383
  JCT-32               JUNCTION      0.07     0.12     0  08:15     0.00512       0.011      82.642
  JCT-34               JUNCTION      0.19     0.19     0  08:45      0.0148      0.0151      43.848
  JCT-36               JUNCTION      0.00     2.09     0  09:00           0       0.155       3.023
  JCT-38               JUNCTION      0.05     4.02     0  09:00     0.00401       0.319       2.233
  JCT-40               JUNCTION      0.14     0.27     0  01:39      0.0112      0.0206      13.968
  F1141                OUTFALL       0.00     0.00     0  00:00           0           0       0.000 gal
  
  
  **********************
  Node Surcharge Summary
  **********************
  
  Surcharging occurs when water rises above the top of the highest conduit.
  ---------------------------------------------------------------------
                                               Max. Height   Min. Depth
                                   Hours       Above Crown    Below Rim
  Node                 Type      Surcharged           Feet         Feet
  ---------------------------------------------------------------------
  E11114               JUNCTION       14.40          0.000        0.000
  E11117               JUNCTION        5.28          0.000        0.000
  E11119               JUNCTION       14.41          0.000        0.000
  E11121               JUNCTION        1.16          0.000        0.000
  E11124               JUNCTION        4.34          0.000        0.000
  E11127               JUNCTION        9.35          0.000        0.000
  E11128               JUNCTION        4.69          0.000        0.000
  E11131               JUNCTION       14.46          0.000        0.000
  E11133               JUNCTION       14.46          0.000        0.000
  E11137               JUNCTION        5.97          0.000        0.000
  E11138               JUNCTION       16.00          0.000        0.000
  E11139               JUNCTION       14.66          0.000        0.000
  E11140               JUNCTION       14.66          0.000        0.000
  E11143               JUNCTION       14.65          0.000        0.000
  E11145               JUNCTION       14.65          0.000        0.000
  E11147               JUNCTION       14.65          0.000        0.000
  E11150               JUNCTION       14.65          0.000        0.000
  E11178               JUNCTION        0.01          0.000        0.000
  E11181               JUNCTION       14.95          0.000        0.000
  E11185               JUNCTION       14.72          0.000        0.000
  E11187               JUNCTION       14.72          0.000        0.000
  E11210               JUNCTION       14.65          0.000        0.000
  E11212               JUNCTION       14.65          0.000        0.000
  E11214               JUNCTION       14.63          0.000        0.000
  E11215               JUNCTION       14.67          0.000        0.000
  E11216               JUNCTION        3.46          0.000        0.000
  E11217               JUNCTION        4.21          0.000        0.000
  E11442               JUNCTION       14.89          0.000        0.000
  E11443               JUNCTION        1.48          0.000        0.000
  E11447               JUNCTION        4.67          0.000        0.000
  E1156                JUNCTION       13.67          0.000        0.000
  E1177                JUNCTION       14.68          0.000        0.000
  E1179                JUNCTION       12.28          0.000        0.000
  E1180                JUNCTION       12.89          0.000        0.000
  E1181                JUNCTION        5.80          0.000        0.000
  E1183                JUNCTION       11.71          0.000        0.000
  E1185                JUNCTION        0.43          0.000        0.000
  E1189                JUNCTION       14.37          0.000        0.000
  E1194                JUNCTION        0.84          0.000        0.000
  E1197                JUNCTION       14.22          0.000        0.000
  E1198                JUNCTION       14.21          0.000        0.000
  E1199                JUNCTION       14.29          0.000        0.000
  E12157               JUNCTION       14.72          0.000        0.000
  E12163               JUNCTION        1.16          0.000        0.000
  E12165               JUNCTION       14.74          0.000        0.000
  E12169               JUNCTION        1.22          0.000        0.000
  E12191               JUNCTION        1.18          0.000        0.000
  E12193               JUNCTION        1.11          0.000        0.000
  E12195               JUNCTION       14.76          0.000        0.000
  E12197               JUNCTION       14.76          0.000        0.000
  E12202               JUNCTION       14.85          0.000        0.000
  E12205               JUNCTION        5.76          0.000        0.000
  E12206               JUNCTION        3.95          0.000        0.000
  E12207               JUNCTION        0.36          0.000        0.000
  F11109               JUNCTION       14.57          0.000        0.000
  F1142                JUNCTION       13.69          0.000        0.000
  F1148                JUNCTION       14.64          0.000        0.000
  F1165                JUNCTION        0.79          0.000        0.000
  F1168                JUNCTION       13.83          0.000        0.000
  F1171                JUNCTION       14.68          0.000        0.000
  JCT-10               JUNCTION       14.28          0.000        0.000
  JCT-12               JUNCTION       14.28          0.000        0.000
  JCT-14               JUNCTION       14.28          0.000        0.000
  JCT-16               JUNCTION       14.27          0.000        0.000
  JCT-18               JUNCTION       14.37          0.000        0.000
  JCT-20               JUNCTION       13.48          0.000        0.000
  JCT-22               JUNCTION       13.41          0.000        0.000
  JCT-24               JUNCTION       13.35          0.000        0.000
  JCT-26               JUNCTION       13.66          0.000        0.000
  JCT-28               JUNCTION       13.70          0.000        0.000
  JCT-30               JUNCTION        2.26          0.000        0.000
  JCT-32               JUNCTION        2.04          0.000        0.000
  JCT-34               JUNCTION        1.99          0.000        0.000
  JCT-36               JUNCTION       14.36          0.000        0.000
  JCT-38               JUNCTION       14.34          0.000        0.000
  JCT-40               JUNCTION       14.34          0.000        0.000
  
  
  *********************
  Node Flooding Summary
  *********************
  
  Flooding refers to all water that overflows a node, whether it ponds or not.
  --------------------------------------------------------------------------
                                                             Total   Maximum
                                 Maximum   Time of Max       Flood    Ponded
                        Hours       Rate    Occurrence      Volume     Depth
  Node                 Flooded       CFS   days hr:min    10^6 gal      Feet
  --------------------------------------------------------------------------
  E11114                 14.40      1.47      0  08:19       0.186     0.000
  E11117                  5.27      2.82      0  09:00       0.151     0.000
  E11119                 14.41      4.31      0  09:00       0.577     0.000
  E11121                  1.15      1.50      0  09:00       0.038     0.000
  E11124                  4.33      1.98      0  08:17       0.087     0.000
  E11127                  9.32      8.21      0  09:00       0.907     0.000
  E11128                  4.69     16.15      0  09:00       0.689     0.000
  E11131                 14.46      3.47      0  08:47       0.452     0.000
  E11133                 13.21      3.68      0  09:00       0.358     0.000
  E11137                  5.96      7.77      0  09:00       0.433     0.000
  E11139                 14.66      1.49      0  09:00       0.207     0.000
  E11140                 14.66     17.12      0  09:00       1.302     0.000
  E11143                 14.38      2.26      0  09:00       0.175     0.000
  E11145                 14.65      3.17      0  09:00       0.245     0.000
  E11147                 14.65      1.33      0  08:30       0.107     0.000
  E11150                 14.65      2.24      0  09:00       0.173     0.000
  E11178                  0.01      0.88      0  01:03       0.000     0.000
  E11181                 14.95     12.71      0  01:03       0.414     0.000
  E11185                 14.72      5.36      0  09:00       0.451     0.000
  E11187                 14.72      3.55      0  08:45       0.392     0.000
  E11210                 14.65      1.44      0  09:00       0.112     0.000
  E11212                  0.29      0.49      0  01:20       0.001     0.000
  E11214                 10.69      0.50      0  09:00       0.038     0.000
  E11215                 14.67      5.87      0  09:00       0.849     0.000
  E11216                  3.45      3.43      0  09:00       0.103     0.000
  E11217                  4.21      5.89      0  09:00       0.222     0.000
  E11442                 14.17      6.21      0  09:00       0.485     0.000
  E11443                  1.47      7.25      0  09:00       0.185     0.000
  E11447                  4.67      9.50      0  09:00       0.404     0.000
  E1156                   7.87      0.10      0  02:19       0.001     0.000
  E1177                  14.68      3.27      0  09:00       0.253     0.000
  E1179                   6.11      0.16      0  08:45       0.010     0.000
  E1180                   7.98      0.29      0  08:45       0.021     0.000
  E1181                   5.78      4.81      0  01:37       0.038     0.000
  E1183                  11.71     17.05      0  09:00       1.328     0.000
  E1185                   0.42      0.12      0  09:00       0.001     0.000
  E1189                  13.15      4.83      0  08:52       0.389     0.000
  E1194                   0.84      0.56      0  09:00       0.011     0.000
  E1197                  14.21      0.83      0  08:34       0.064     0.000
  E1198                  14.04      0.29      0  01:50       0.023     0.000
  E1199                  14.29      4.81      0  09:00       0.667     0.000
  E12157                 14.72      6.30      0  09:00       0.558     0.000
  E12163                  1.16      1.28      0  09:00       0.033     0.000
  E12165                 14.74      4.45      0  09:00       0.408     0.000
  E12169                  1.22      1.23      0  09:00       0.033     0.000
  E12191                  1.18      1.86      0  09:00       0.054     0.000
  E12193                  1.11      7.09      0  09:00       0.167     0.000
  E12195                 14.76      9.42      0  09:00       1.074     0.000
  E12197                 14.76     21.36      0  09:00       1.657     0.000
  E12202                 14.85     10.08      0  09:00       1.966     0.000
  E12205                  5.76     22.31      0  09:00       1.666     0.000
  E12206                  3.95     25.34      0  09:00       0.895     0.000
  E12207                  0.36      0.61      0  09:00       0.004     0.000
  F11109                 14.45      6.09      0  09:00       0.475     0.000
  F1142                  13.69      0.12      0  02:18       0.006     0.000
  F1148                  14.64      6.43      0  09:00       0.490     0.000
  F1165                   0.79      0.20      0  09:00       0.004     0.000
  F1168                  13.08      5.88      0  09:00       0.475     0.000
  F1171                  14.68      5.28      0  09:00       0.407     0.000
  JCT-10                 14.28      0.88      0  08:30       0.069     0.000
  JCT-12                 14.28      0.70      0  01:43       0.006     0.000
  JCT-14                 14.28      3.27      0  09:00       0.252     0.000
  JCT-16                 14.27      0.53      0  08:25       0.045     0.000
  JCT-18                 14.37      5.91      0  09:31       0.803     0.000
  JCT-20                  0.32      0.22      0  02:17       0.000     0.000
  JCT-22                  8.96      1.75      0  08:52       0.124     0.000
  JCT-24                  7.71      0.86      0  08:49       0.053     0.000
  JCT-26                 13.66      0.08      0  02:15       0.005     0.000
  JCT-28                 13.70      0.82      0  08:30       0.061     0.000
  JCT-30                  2.12      0.05      0  08:15       0.002     0.000
  JCT-32                  2.03      0.11      0  08:15       0.003     0.000
  JCT-34                  1.97      0.15      0  09:00       0.005     0.000
  JCT-36                 14.36      2.09      0  09:00       0.151     0.000
  JCT-38                 10.96      4.01      0  09:00       0.303     0.000
  JCT-40                 14.34      0.27      0  01:39       0.018     0.000
  
  
  ***********************
  Outfall Loading Summary
  ***********************
  
  -----------------------------------------------------------
                         Flow       Avg       Max       Total
                         Freq      Flow      Flow      Volume
  Outfall Node           Pcnt       CFS       CFS    10^6 gal
  -----------------------------------------------------------
  F1141                  0.00      0.00      0.00       0.000
  -----------------------------------------------------------
  System                 0.00      0.00      0.00       0.000
  
  
  ********************
  Link Flow Summary
  ********************
  
  -----------------------------------------------------------------------------
                                 Maximum  Time of Max   Maximum    Max/    Max/
                                  |Flow|   Occurrence   |Veloc|    Full    Full
  Link                 Type          CFS  days hr:min    ft/sec    Flow   Depth
  -----------------------------------------------------------------------------
  CDT-101              CONDUIT      3.27     0  09:00      3.20    0.46    0.84
  CDT-103              CONDUIT      0.52     0  09:00      2.23    0.06    0.62
  CDT-105              CONDUIT      0.29     0  01:42      0.48    0.08    0.70
  CDT-107              CONDUIT      0.20     0  01:50      0.45    0.05    0.70
  CDT-109              CONDUIT      4.01     0  09:00      3.14    0.98    0.98
  CDT-11               CONDUIT      1.48     0  09:00      1.69    0.26    0.75
  CDT-111              CONDUIT      4.84     0  09:00      3.74    0.93    0.98
  CDT-113              CONDUIT      0.60     0  08:35      0.82    0.12    0.68
  CDT-115              CONDUIT      5.92     0  08:14      4.44    1.00    1.00
  CDT-117              CONDUIT      0.25     0  02:01      0.79    1.66    1.00
  CDT-119              CONDUIT      1.46     0  08:47      2.51    0.39    0.58
  CDT-121              CONDUIT      1.75     0  08:48      2.53    0.24    0.75
  CDT-123              CONDUIT      0.20     0  01:40      0.56    1.37    1.00
  CDT-125              CONDUIT      1.73     0  08:18      4.08    0.27    0.47
  CDT-127              CONDUIT      0.87     0  08:49      1.92    0.14    0.69
  CDT-129              CONDUIT      0.92     0  09:00      1.87    0.35    0.52
  CDT-13               CONDUIT      1.48     0  09:00      1.69    0.26    0.75
  CDT-131              CONDUIT      1.22     0  09:00      1.95    0.13    0.69
  CDT-133              CONDUIT      0.87     0  08:49      1.30    0.14    0.69
  CDT-137              CONDUIT      0.00     0  00:00      0.00    0.00    0.50
  CDT-139              CONDUIT      0.00     0  00:00      0.00    0.00    0.00
  CDT-141              CONDUIT      0.00     0  00:00      0.00    0.00    0.00
  CDT-143              CONDUIT      0.00     0  00:00      0.00    0.00    0.50
  CDT-145              CONDUIT      0.00     0  00:00      0.00    0.00    0.50
  CDT-147              CONDUIT      0.00     0  00:00      0.00    0.00    0.50
  CDT-149              CONDUIT      0.03     0  08:07      0.14    0.19    1.00
  CDT-15               CONDUIT      0.24     0  01:25      0.39    1.63    1.00
  CDT-151              CONDUIT      0.07     0  08:08      0.29    0.47    1.00
  CDT-153              CONDUIT      0.00     0  00:00      0.00    0.00    0.50
  CDT-155              CONDUIT      3.43     0  09:00      3.53    0.38    0.81
  CDT-157              CONDUIT      3.00     0  09:00      2.98    0.43    0.83
  CDT-159              CONDUIT      0.72     0  09:00      0.90    0.34    0.71
  CDT-161              CONDUIT      3.96     0  09:00      3.57    0.59    0.89
  CDT-163              CONDUIT      0.00     0  00:00      0.00    0.00    0.50
  CDT-165              CONDUIT      0.00     0  00:00      0.00    0.00    0.50
  CDT-167              CONDUIT      0.24     0  01:39      0.57    1.59    1.00
  CDT-17               CONDUIT      1.24     0  07:28      1.48    0.21    0.73
  CDT-19               CONDUIT      1.24     0  07:28      1.48    0.21    0.73
  CDT-21               CONDUIT      0.66     0  01:31      0.89    4.43    1.00
  CDT-23               CONDUIT      0.00     0  00:00      0.00    0.00    0.50
  CDT-25               CONDUIT      0.00     0  00:00      0.00    0.00    0.50
  CDT-29               CONDUIT      0.77     0  01:42      0.97    5.13    1.00
  CDT-31               CONDUIT      0.82     0  01:40      0.99    5.49    1.00
  CDT-33               CONDUIT      0.69     0  01:36      0.94    4.58    1.00
  CDT-35               CONDUIT      0.31     0  01:45      0.42    0.08    0.70
  CDT-37               CONDUIT      0.57     0  01:38      0.87    0.15    0.70
  CDT-39               CONDUIT      0.22     0  01:26      0.39    1.44    1.00
  CDT-41               CONDUIT      1.59     0  01:38      1.39   10.59    1.00
  CDT-43               CONDUIT      1.13     0  01:44      1.04    7.51    1.00
  CDT-45               CONDUIT      1.31     0  01:49      1.42    8.75    1.00
  CDT-47               CONDUIT      1.12     0  02:03      1.26    7.48    1.00
  CDT-49               CONDUIT      0.82     0  02:01      1.27    5.49    1.00
  CDT-51               CONDUIT      0.00     0  00:00      0.00    0.00    0.50
  CDT-53               CONDUIT      1.26     0  09:00      1.16    0.44    0.87
  CDT-55               CONDUIT      2.95     0  09:00      4.48    0.48    0.63
  CDT-57               CONDUIT      2.21     0  09:00      3.07    0.21    0.73
  CDT-59               CONDUIT      2.23     0  09:00      2.89    0.24    0.74
  CDT-61               CONDUIT      4.90     0  03:32      3.67    1.00    1.00
  CDT-63               CONDUIT      1.15     0  01:24      1.34    0.47    0.89
  CDT-65               CONDUIT      1.09     0  04:16      1.46    0.33    0.89
  CDT-67               CONDUIT      3.22     0  08:17      2.41    1.75    1.00
  CDT-69               CONDUIT      2.47     0  07:21      2.71    0.92    0.78
  CDT-71               CONDUIT      2.48     0  07:23      5.13    0.28    0.51
  CDT-73               CONDUIT      1.63     0  08:15      1.84    1.72    0.78
  CDT-75               CONDUIT      3.09     0  08:46      3.35    0.31    0.78
  CDT-77               CONDUIT      0.84     0  07:15      0.86    0.44    0.92
  CDT-79               CONDUIT      0.55     0  07:19      0.96    0.19    0.62
  CDT-81               CONDUIT      1.46     0  08:19      2.40    0.16    0.71
  CDT-83               CONDUIT      2.51     0  07:21      1.94    1.02    1.00
  CDT-85               CONDUIT      4.52     0  03:38      3.39    1.00    1.00
  CDT-87               CONDUIT      0.00     0  00:00      0.00    0.00    0.50
  CDT-89               CONDUIT      0.19     0  01:21      0.81    1.27    1.00
  CDT-91               CONDUIT      3.24     0  09:00      2.85    0.97    0.94
  CDT-93               CONDUIT      4.83     0  09:00      3.95    0.79    0.94
  CDT-95               CONDUIT      2.63     0  09:00      2.82    0.33    0.79
  CDT-97               CONDUIT      0.28     0  09:00      0.88    0.03    0.59
  CDT-99               CONDUIT      2.90     0  09:00      2.83    4.33    0.84
  E11104-E11106        CONDUIT      0.20     0  09:00      2.84    0.01    0.14
  E11129-E11125        CONDUIT      3.93     0  09:00      9.56    0.20    0.46
  E11130-E11129        CONDUIT      0.26     0  09:00      1.34    0.01    0.28
  E11140-E11139        CONDUIT      0.36     0  01:12      1.99    0.48    1.00
  E11141-E11140        CONDUIT     17.14     0  09:00     18.30    0.33    0.79
  E11142-E11141        CONDUIT      6.62     0  09:00     13.28    0.21    0.52
  E11143-E11210        CONDUIT      0.57     0  01:20      0.93    1.46    1.00
  E11144-E11143        CONDUIT      0.01     0  09:00      0.02    0.00    0.51
  E11144-E11145        CONDUIT      3.17     0  09:00     15.10    0.05    0.61
  E11145-E11143        CONDUIT      0.40     0  01:08      1.73    0.65    1.00
  E11146-E11144        CONDUIT      2.15     0  09:00     11.22    0.07    0.27
  E11147-E11145        CONDUIT      0.48     0  01:17      1.13    2.21    1.00
  E11148-E11147        CONDUIT      1.33     0  09:00      4.99    0.01    0.55
  E11149-E11148        CONDUIT      1.18     0  09:00     13.74    0.03    0.49
  E11150-E11147        CONDUIT      1.22     0  01:03      3.87    2.22    1.00
  E11150-E11151        CONDUIT      1.83     0  09:00      5.03    0.04    0.61
  E11152-E11150        CONDUIT      6.22     0  01:03    >50.00    0.08    0.58
  E11171-E11143        CONDUIT      2.26     0  09:00      6.03    0.06    0.62
  E11172-E11171        CONDUIT      0.97     0  08:45      8.33    0.04    0.20
  E11173-E11172        CONDUIT      0.28     0  08:30      1.03    0.01    0.35
  E11174-E11143        CONDUIT      0.00     0  00:00      0.00    0.00    0.50
  E11175-E11174        CONDUIT      0.00     0  00:00      0.00    0.00    0.00
  E11176-E11441        CONDUIT      2.69     0  09:00      5.91    0.24    0.49
  E11177-E11176        CONDUIT      0.43     0  09:00      2.24    0.08    0.28
  E11178-E11176        CONDUIT      4.48     0  01:03      8.01    0.97    0.62
  E11179-E11152        CONDUIT      5.70     0  01:02      5.01    1.87    0.90
  E11179-E11178        CONDUIT     34.37     0  01:02     31.57    1.62    0.87
  E11180-E11179        CONDUIT      1.90     0  09:00     13.60    0.05    0.33
  E11181-E11179        CONDUIT     21.58     0  01:03     27.04    0.44    0.73
  E11182-E11181        CONDUIT      1.86     0  09:00      6.17    0.04    0.61
  E11183-E11181        CONDUIT      1.84     0  09:00     14.97    0.05    0.62
  E11184-E11183        CONDUIT      7.00     0  09:00     17.87    0.16    0.45
  E11185-E11183        CONDUIT      5.16     0  09:00     23.77    0.09    0.66
  E11186-E11185        CONDUIT      0.20     0  08:30      0.39    0.00    0.53
  E11187-E11185        CONDUIT      0.29     0  01:04      1.54    0.54    1.00
  E11188-E11187        CONDUIT      1.19     0  08:45     10.57    0.01    0.57
  E11210-E11212        CONDUIT      0.59     0  01:20      0.98    0.81    1.00
  E11211-E11210        CONDUIT      1.44     0  09:00     14.56    0.02    0.58
  E11212-E11140        CONDUIT      1.09     0  01:20      1.01    3.43    1.00
  E11213-E11212        CONDUIT      0.00     0  00:00      0.00    0.00    0.50
  E11214-E11213        CONDUIT      0.50     0  09:00      2.95    0.01    0.56
  E11441-E11175        CONDUIT      0.50     0  09:00      0.86    0.04    0.60
  E11442-E11441        CONDUIT      4.01     0  09:00      3.01   14.32    1.00
  E1182-E1181          CONDUIT      4.71     0  01:37      3.90    0.81    0.94
  E1183-E1182          CONDUIT     13.97     0  09:00     10.48    0.72    1.00
  E1184-E1182          CONDUIT     12.19     0  09:00     13.67    0.99    1.00
  E1185-E1184          CONDUIT      8.55     0  09:00     11.30    0.40    0.87
  E1186-E1184          CONDUIT      3.64     0  09:00      7.57    0.20    0.63
  E12153-E11152        CONDUIT      0.31     0  09:00      3.70    0.02    0.20
  E12154-E12153        CONDUIT      1.18     0  09:00     13.85    0.04    0.20
  E12155-E12153        CONDUIT      0.73     0  08:30      7.45    0.03    0.18
  E12156-E12155        CONDUIT      0.56     0  08:30      8.65    0.02    0.13
  E12157-E12153        CONDUIT      1.60     0  09:00      9.21    0.03    0.59
  E12158-E12157        CONDUIT      0.87     0  08:30     13.78    0.01    0.55
  E12159-E12157        CONDUIT      3.84     0  09:00     35.35    0.04    0.60
  E12160-E12159        CONDUIT      1.79     0  09:00      7.83    0.09    0.31
  E12161-E12160        CONDUIT      0.61     0  09:00      8.84    0.02    0.14
  E12162-E12159        CONDUIT      1.90     0  08:15      5.22    0.17    0.42
  E12163-E12162        CONDUIT      1.26     0  08:10      1.53    0.23    0.73
  E12164-E12163        CONDUIT      2.54     0  09:00     29.14    0.04    0.61
  E12165-E12164        CONDUIT      0.72     0  09:00      5.65    0.04    0.61
  E12166-E12165        CONDUIT      3.73     0  09:00      3.52    0.51    0.86
  E12167-E12166        CONDUIT      3.73     0  09:00      3.56    1.96    0.85
  E12168-E12167        CONDUIT      0.97     0  08:02      1.81    0.07    0.63
  E12169-E12168        CONDUIT      0.97     0  08:02      1.45    0.05    0.63
[...]
  CDT-87                  1.00   0.06  0.94  0.00  0.00  0.00  0.00  0.00  0.00  0.00
  CDT-89                  1.00   0.06  0.00  0.00  0.94  0.00  0.00  0.00  0.00  0.00
  CDT-91                  1.00   0.06  0.00  0.00  0.94  0.00  0.00  0.00  0.00  0.00
  CDT-93                  1.00   0.06  0.00  0.00  0.92  0.01  0.00  0.00  0.92  0.00
  CDT-95                  1.00   0.06  0.00  0.00  0.92  0.01  0.00  0.00  0.93  0.00
  CDT-97                  1.00   0.06  0.00  0.00  0.93  0.00  0.00  0.00  0.93  0.00
  CDT-99                  1.00   0.06  0.00  0.00  0.94  0.00  0.00  0.00  0.00  0.00
  E11104-E11106           3.16   0.06  0.00  0.00  0.52  0.42  0.00  0.00  0.79  0.00
  E11129-E11125           1.95   0.07  0.00  0.00  0.00  0.00  0.00  0.93  0.00  0.00
  E11130-E11129           6.71   0.07  0.00  0.00  0.87  0.00  0.00  0.06  0.93  0.00
  E11140-E11139           1.30   0.06  0.00  0.00  0.93  0.00  0.00  0.00  0.00  0.00
  E11141-E11140           5.90   0.06  0.00  0.00  0.54  0.39  0.00  0.00  0.93  0.00
  E11142-E11141           3.38   0.06  0.00  0.00  0.00  0.93  0.00  0.00  0.93  0.00
  E11143-E11210           1.00   0.06  0.00  0.00  0.94  0.00  0.00  0.00  0.00  0.00
  E11144-E11143           5.35   0.06  0.88  0.00  0.05  0.00  0.00  0.00  0.49  0.00
  E11144-E11145          14.93   0.07  0.00  0.00  0.86  0.07  0.00  0.00  0.93  0.00
  E11145-E11143           1.00   0.06  0.00  0.00  0.94  0.00  0.00  0.00  0.00  0.00
  E11146-E11144           3.84   0.07  0.00  0.00  0.00  0.00  0.00  0.93  0.00  0.00
  E11147-E11145           1.00   0.06  0.00  0.00  0.94  0.00  0.00  0.00  0.00  0.00
  E11148-E11147          53.74   0.06  0.00  0.00  0.93  0.00  0.00  0.00  0.93  0.00
  E11149-E11148           5.18   0.07  0.00  0.00  0.00  0.00  0.00  0.93  0.00  0.00
  E11150-E11147           1.00   0.06  0.00  0.00  0.94  0.00  0.00  0.00  0.00  0.00
  E11150-E11151           5.59   0.06  0.00  0.00  0.93  0.00  0.00  0.00  0.94  0.00
  E11152-E11150          27.94   0.06  0.00  0.00  0.93  0.00  0.00  0.00  0.93  0.00
  E11171-E11143           3.76   0.06  0.00  0.00  0.93  0.01  0.00  0.00  0.93  0.00
  E11172-E11171           4.03   0.07  0.00  0.00  0.00  0.00  0.00  0.93  0.00  0.00
  E11173-E11172           4.92   0.07  0.00  0.00  0.93  0.00  0.00  0.00  0.93  0.00
  E11174-E11143           1.00   0.06  0.94  0.00  0.00  0.00  0.00  0.00  0.00  0.00
  E11175-E11174           1.94   1.00  0.00  0.00  0.00  0.00  0.00  0.00  0.00  0.00
  E11176-E11441           1.00   0.06  0.00  0.00  0.00  0.00  0.00  0.94  0.00  0.00
  E11177-E11176           1.50   0.07  0.00  0.00  0.00  0.00  0.00  0.93  0.00  0.00
  E11178-E11176           1.00   0.06  0.00  0.00  0.93  0.00  0.00  0.00  0.00  0.00
  E11179-E11152           1.00   0.07  0.00  0.00  0.93  0.00  0.00  0.00  0.51  0.00
  E11179-E11178           2.92   0.06  0.94  0.00  0.00  0.00  0.00  0.00  0.93  0.00
  E11180-E11179           4.29   0.07  0.00  0.00  0.00  0.00  0.00  0.93  0.00  0.00
  E11181-E11179           8.50   0.06  0.00  0.00  0.93  0.00  0.00  0.00  0.93  0.00
  E11182-E11181           3.50   0.06  0.00  0.00  0.93  0.00  0.00  0.00  0.93  0.00
  E11183-E11181           3.33   0.06  0.43  0.00  0.51  0.00  0.00  0.00  0.93  0.00
  E11184-E11183           7.13   0.06  0.00  0.00  0.00  0.00  0.00  0.94  0.00  0.00
  E11185-E11183          10.99   0.06  0.00  0.00  0.79  0.14  0.00  0.00  0.93  0.00
  E11186-E11185          15.38   0.06  0.00  0.00  0.93  0.00  0.00  0.00  0.93  0.00
  E11187-E11185           1.00   0.06  0.00  0.00  0.94  0.00  0.00  0.00  0.00  0.00
  E11188-E11187          19.48   0.06  0.00  0.00  0.93  0.00  0.00  0.00  0.93  0.00
  E11210-E11212           1.25   0.06  0.00  0.00  0.94  0.00  0.00  0.00  0.00  0.00
  E11211-E11210           8.54   0.07  0.00  0.00  0.93  0.01  0.00  0.00  0.93  0.00
  E11212-E11140           1.00   0.06  0.00  0.00  0.94  0.00  0.00  0.00  0.00  0.00
  E11213-E11212          29.32   0.06  0.94  0.00  0.00  0.00  0.00  0.00  0.00  0.00
  E11214-E11213           4.83   0.06  0.00  0.00  0.93  0.00  0.00  0.00  0.94  0.00
  E11441-E11175           1.00   0.06  0.00  0.00  0.94  0.00  0.00  0.00  0.94  0.00
  E11442-E11441           1.00   0.06  0.00  0.00  0.94  0.00  0.00  0.00  0.00  0.00
  E1182-E1181             1.00   0.07  0.03  0.00  0.00  0.00  0.90  0.00  0.00  0.00
  E1183-E1182             2.38   0.06  0.00  0.00  0.84  0.09  0.00  0.00  0.07  0.00
  E1184-E1182             1.00   0.07  0.00  0.00  0.00  0.00  0.00  0.93  0.00  0.00
  E1185-E1184             8.02   0.06  0.00  0.00  0.00  0.08  0.00  0.86  0.00  0.00
  E1186-E1184             2.83   0.06  0.00  0.00  0.00  0.39  0.00  0.54  0.39  0.00
  E12153-E11152           1.00   0.54  0.00  0.00  0.00  0.00  0.00  0.46  0.00  0.00
  E12154-E12153           9.92   0.07  0.00  0.00  0.00  0.00  0.00  0.93  0.00  0.00
  E12155-E12153           3.92   0.07  0.00  0.00  0.00  0.00  0.00  0.93  0.00  0.00
  E12156-E12155           7.69   0.07  0.00  0.00  0.00  0.00  0.00  0.93  0.00  0.00
  E12157-E12153           4.17   0.07  0.00  0.00  0.93  0.00  0.00  0.00  0.93  0.00
  E12158-E12157          28.00   0.07  0.00  0.00  0.93  0.00  0.00  0.00  0.93  0.00
  E12159-E12157          22.18   0.07  0.00  0.00  0.73  0.20  0.00  0.00  0.93  0.00
  E12160-E12159           2.08   0.07  0.00  0.00  0.00  0.00  0.00  0.93  0.00  0.00
  E12161-E12160           9.52   0.07  0.00  0.00  0.00  0.00  0.00  0.93  0.00  0.00
  E12162-E12159           1.39   0.07  0.00  0.00  0.00  0.00  0.00  0.93  0.00  0.00
  E12163-E12162           1.00   0.07  0.00  0.00  0.02  0.00  0.91  0.00  0.01  0.00
  E12164-E12163          13.04   0.07  0.00  0.00  0.88  0.05  0.00  0.00  0.93  0.00
  E12165-E12164           1.00   0.07  0.00  0.00  0.93  0.00  0.00  0.00  0.93  0.00
  E12166-E12165           1.00   0.07  0.00  0.00  0.93  0.00  0.00  0.00  0.42  0.00
  E12167-E12166           1.00   0.07  0.00  0.00  0.53  0.00  0.00  0.41  0.00  0.00
  E12168-E12167           1.98   0.07  0.01  0.00  0.92  0.00  0.00  0.00  0.92  0.00
  E12169-E12168           4.50   0.07  0.01  0.00  0.92  0.00  0.00  0.00  0.00  0.00
  E12170-E12169           6.24   0.07  0.00  0.00  0.93  0.00  0.00  0.00  0.93  0.00
  E12189-E11187           1.00   0.06  0.00  0.00  0.93  0.00  0.00  0.00  0.93  0.00
  E12190-E12189           1.00   0.07  0.00  0.00  0.00  0.00  0.00  0.93  0.00  0.00
  E12191-E12190           1.00   0.07  0.00  0.00  0.00  0.00  0.00  0.93  0.00  0.00
  E12192-E12191           4.76   0.07  0.00  0.00  0.11  0.83  0.00  0.00  0.93  0.00
  E12193-E12192           1.74   0.06  0.00  0.00  0.00  0.00  0.00  0.94  0.00  0.00
  E12194-E12193           9.00   0.06  0.00  0.00  0.46  0.48  0.00  0.00  0.93  0.00
  E12195-E12189          14.62   0.06  0.00  0.00  0.57  0.36  0.00  0.00  0.93  0.00
  E12196-E12195          42.91   0.06  0.00  0.00  0.88  0.06  0.00  0.00  0.93  0.00
  E12197-E12195           1.00   0.06  0.00  0.00  0.94  0.00  0.00  0.00  0.00  0.00
  E12198-E12197          85.56   0.06  0.00  0.00  0.55  0.38  0.00  0.00  0.93  0.00
  E12199-E12197          15.33   0.06  0.00  0.00  0.69  0.24  0.00  0.00  0.93  0.00
  E12200-E12199          14.67   0.06  0.00  0.00  0.00  0.00  0.00  0.94  0.00  0.00
  E12201-E12200           1.89   0.06  0.00  0.00  0.00  0.07  0.00  0.86  0.07  0.00
  E12202-E12199           1.00   0.06  0.00  0.00  0.93  0.00  0.00  0.00  0.93  0.00
  E12204-E12202          44.62   0.06  0.00  0.00  0.31  0.62  0.00  0.00  0.93  0.00
  E12205-E12204           3.08   0.06  0.00  0.00  0.00  0.00  0.00  0.93  0.00  0.00
  E12206-E12205           3.07   0.06  0.00  0.00  0.00  0.59  0.00  0.34  0.34  0.00
  E12207-E12206           2.30   0.06  0.00  0.00  0.27  0.67  0.00  0.00  0.91  0.00
  E12208-E12207           6.58   0.06  0.00  0.00  0.63  0.31  0.00  0.00  0.93  0.00
  F11107-E11101           1.00   1.00  0.00  0.00  0.00  0.00  0.00  0.00  0.00  0.00
  F11108-F11107           1.00   1.00  0.00  0.00  0.00  0.00  0.00  0.00  0.00  0.00
  F11109-F11108           1.00   0.06  0.00  0.00  0.94  0.00  0.00  0.00  0.00  0.00
  F11110-F11109           2.06   0.06  0.00  0.00  0.94  0.00  0.00  0.00  0.06  0.00
  F1146-F1145             8.46   0.06  0.00  0.00  0.00  0.00  0.00  0.94  0.00  0.00
  F1149-F1150             9.25   0.06  0.00  0.00  0.92  0.01  0.00  0.00  0.93  0.00
  F1154-F1149             2.73   0.06  0.00  0.00  0.00  0.00  0.00  0.94  0.00  0.00
  F1163-F1162             1.00   0.08  0.84  0.00  0.00  0.00  0.07  0.00  0.00  0.00
  F1164-F1163             2.58   0.13  0.00  0.00  0.00  0.00  0.00  0.87  0.00  0.00
  F1165-F1164             2.30   0.07  0.00  0.00  0.00  0.00  0.93  0.00  0.00  0.00
  F1166-F1165             5.84   0.07  0.00  0.00  0.93  0.00  0.00  0.00  0.93  0.00
  F1167-F1163             1.00   0.06  0.00  0.00  0.93  0.00  0.00  0.00  0.01  0.00
  F1168-F1167             8.22   0.06  0.00  0.00  0.93  0.00  0.00  0.00  0.02  0.00
  F1169-F1167             5.73   0.07  0.00  0.00  0.00  0.00  0.00  0.93  0.00  0.00
  F1170-F1167             1.00   1.00  0.00  0.00  0.00  0.00  0.00  0.00  0.00  0.00
  F1171-F1170            39.18   0.07  0.00  0.00  0.93  0.00  0.00  0.00  0.93  0.00
  F1172-F1171             4.78   0.07  0.00  0.00  0.93  0.00  0.00  0.00  0.93  0.00
  F1173-F1171             2.64   0.07  0.00  0.00  0.86  0.07  0.00  0.00  0.93  0.00
  
  
  *************************
  Conduit Surcharge Summary
  *************************
  
  ----------------------------------------------------------------------------
                                                           Hours        Hours 
                         --------- Hours Full --------   Above Full   Capacity
  Conduit                Both Ends  Upstream  Dnstream   Normal Flow   Limited
  ----------------------------------------------------------------------------
  CDT-101                     0.01      0.01     14.28      0.01         0.01
  CDT-103                     0.01      0.01     14.27      0.01         0.01
  CDT-105                     0.01      0.01     14.08      0.01         0.01
  CDT-107                     0.01      0.01     14.22      0.01         0.01
  CDT-109                     0.01      0.84      0.01      0.01         0.01
  CDT-11                      0.01      0.01     14.66      0.01         0.01
  CDT-111                     0.01      0.01     13.23      0.01         0.01
  CDT-113                     0.01      0.01      1.47      0.01         0.01
  CDT-115                     1.47      1.47     14.37      0.01         0.01
  CDT-117                     0.67     13.70      0.68      0.45         0.01
  CDT-121                     0.01      0.01      8.99      0.01         0.01
  CDT-123                     7.79     13.66      7.83      0.22         0.01
  CDT-127                     0.01      0.01      7.83      0.01         0.01
  CDT-13                      0.01      0.01     13.35      0.01         0.01
  CDT-131                     0.01      0.01     14.36      0.01         0.01
  CDT-133                     0.01      0.01     14.36      0.01         0.01
  CDT-149                     2.03      2.12      2.03      0.01         0.01
  CDT-15                     13.35     13.35     14.46      0.12         0.01
  CDT-151                     1.97      2.03      1.97      0.01         0.01
  CDT-155                     0.01      0.01     14.64      0.01         0.01
  CDT-157                     0.01      0.01     14.64      0.01         0.01
  CDT-161                     0.01      0.01     11.30      0.01         0.01
  CDT-167                    11.30     14.34     11.30      0.52         0.01
  CDT-17                      0.01      0.01     14.46      0.01         0.01
  CDT-19                      0.01      0.01     14.41      0.01         0.01
  CDT-21                     14.40     14.41     14.40      0.64         0.01
  CDT-29                     14.28     14.28     14.29      0.81         0.01
  CDT-31                     14.28     14.29     14.28      0.81         0.01
  CDT-33                     14.27     14.28     14.27      0.67         0.01
  CDT-35                      0.01      0.01     14.27      0.01         0.01
  CDT-37                      0.01      0.01     13.23      0.01         0.01
  CDT-39                     13.23     13.23     14.37      0.08         0.01
  CDT-41                      0.68     14.37      0.68      1.32         0.01
  CDT-43                      0.52      0.68      8.99      0.94         0.01
  CDT-45                      7.73      8.99      7.83      1.11         0.01
  CDT-47                      7.68      7.83      9.11      0.85         0.01
  CDT-49                      9.11      9.11     13.69      0.47         0.01
  CDT-53                      0.01      0.01      5.96      0.01         0.01
  CDT-57                      0.01      0.01     13.35      0.01         0.01
  CDT-59                      0.01      0.01     14.46      0.01         0.01
  CDT-61                      4.69      4.69      9.33      4.44         0.01
  CDT-63                      0.01      0.01      9.33      0.01         0.01
  CDT-65                      0.01      0.01      5.00      0.01         0.01
  CDT-67                      4.33      5.00      4.33      5.46         4.33
  CDT-69                      0.01      4.33      0.01      0.01         0.01
  CDT-73                      0.01      0.01      1.15      4.49         0.01
  CDT-75                      0.01      0.01     14.41      0.01         0.01
  CDT-81                      0.01      0.01     14.40      0.01         0.01
  CDT-83                      0.01      4.21      0.01      4.15         0.01
  CDT-85                      0.01      0.01     14.67      0.01         0.01
  CDT-89                     14.28     14.28     14.28      0.12         0.01
  CDT-91                      0.01      4.67      0.01      0.01         0.01
  CDT-93                      0.01      0.01     14.29      0.01         0.01
  CDT-95                      0.01      0.01      1.26      0.01         0.01
  CDT-97                      0.01      0.01      1.26      0.01         0.01
  CDT-99                      0.01      0.01      1.26      5.04         0.01
  E11140-E11139              14.66     14.66     14.66      0.01         0.01
  E11141-E11140               0.01      0.01     14.66      0.01         0.01
  E11143-E11210              14.65     14.65     14.65      0.13         0.01
  E11144-E11143               0.01      0.01      7.81      0.01         0.01
  E11144-E11145               0.01      0.01     14.65      0.01         0.01
  E11145-E11143              14.65     14.65     14.65      0.01         0.01
  E11147-E11145              14.65     14.65     14.65      0.37         0.01
  E11148-E11147               0.01      0.01     14.65      0.01         0.01
  E11150-E11147              14.65     14.65     14.65      0.03         0.01
  E11150-E11151               0.01      0.01     14.65      0.01         0.01
  E11152-E11150               0.01      0.01     14.65      0.01         0.01
  E11171-E11143               0.01      0.01     14.65      0.01         0.01
  E11178-E11176               0.01      0.01      0.01      0.01         0.01
  E11179-E11152               0.01      0.01      0.01      0.01         0.01
  E11179-E11178               0.01      0.01      0.01      0.01         0.01
  E11181-E11179               0.01      0.01     14.95      0.01         0.01
  E11182-E11181               0.01      0.01     14.95      0.01         0.01
  E11183-E11181               0.01      0.01     14.85      0.01         0.01
  E11185-E11183               0.01      0.01     14.72      0.01         0.01
  E11186-E11185               0.01      0.01     14.72      0.01         0.01
  E11187-E11185              14.72     14.72     14.72      0.01         0.01
  E11188-E11187               0.01      0.01     14.72      0.01         0.01
  E11210-E11212               0.47     14.65      0.48      0.01         0.01
  E11211-E11210               0.01      0.01     14.65      0.01         0.01
  E11212-E11140               0.48      0.48     14.66      0.29         0.01
  E11214-E11213               0.01      0.01     14.63      0.01         0.01
  E11441-E11175               0.01      0.01     10.35      0.01         0.01
  E11442-E11441              10.00     14.39     10.35      6.66         0.01
  E1182-E1181                 0.01      0.01      5.78      0.01         0.01
  E1183-E1182                11.71     11.71     14.03      0.01         0.01
  E1185-E1184                 0.01      0.42      0.01      0.01         0.01
  E1186-E1184                 0.01      0.01      0.01      0.01         0.01
  E12157-E12153               0.01      0.01     14.72      0.01         0.01
  E12158-E12157               0.01      0.01     14.72      0.01         0.01
  E12159-E12157               0.01      0.01     14.72      0.01         0.01
  E12163-E12162               0.01      0.01      1.16      0.01         0.01
  E12164-E12163               0.01      0.01      1.26      0.01         0.01
  E12165-E12164               0.01      0.01     14.74      0.01         0.01
  E12166-E12165               0.01      0.01     14.74      0.01         0.01
  E12167-E12166               0.01      0.01      0.01      3.72         0.01
  E12168-E12167               0.01      0.01      0.81      0.01         0.01
  E12169-E12168               0.01      0.01      1.77      0.01         0.01
  E12170-E12169               0.01      0.01      1.22      0.01         0.01
  E12189-E11187               0.01      0.01     14.72      0.01         0.01
  E12190-E12189               0.01      0.01      0.01      0.01         0.01
  E12191-E12190               0.01      1.18      0.01      0.01         0.01
  E12192-E12191               0.01      0.01      1.23      0.01         0.01
  E12193-E12192               0.01      1.11      0.01      0.01         0.01
  E12194-E12193               0.01      0.01      1.16      0.01         0.01
  E12195-E12189               0.01      0.01     14.76      0.01         0.01
  E12196-E12195               0.01      0.01     14.76      0.01         0.01
  E12197-E12195              14.76     14.76     14.76      0.02         0.01
  E12198-E12197               0.01      0.01     14.76      0.01         0.01
  E12199-E12197               0.01      0.01     14.76      0.01         0.01
  E12200-E12199               0.01      0.70      0.01      0.01         0.01
  E12202-E12199               0.01      0.01     14.85      0.01         0.01
  E12204-E12202               0.01      0.01     14.85      0.01         0.01
  E12205-E12204               0.01      5.83      0.01      0.01         0.01
  E12206-E12205               3.95      3.95      5.76      0.01         0.01
  E12207-E12206               0.36      0.36      4.32      0.01         0.01
  E12208-E12207               0.01      0.01      0.81      0.01         0.01
  F11109-F11108               0.01      0.01     14.39      0.01         0.01
  F11110-F11109               0.01      0.01     14.39      0.01         0.01
  F1163-F1162                 0.01      0.01      7.93      0.01         0.01
  F1165-F1164                 0.01      0.01      1.28      0.01         0.01
  F1166-F1165                 0.01      0.01      0.79      0.01         0.01
  F1167-F1163                14.67     14.67     14.83      0.01         0.01
  F1168-F1167                13.13     13.13     14.67      0.01         0.01
  F1171-F1170                 0.01      0.01     14.68      0.01         0.01
  F1172-F1171                 0.01      0.01     14.68      0.01         0.01
  F1173-F1171                 0.01      0.01     14.68      0.01         0.01
  

  Analysis begun on:  Fri Nov 29 10:54:52 2019
  Analysis ended on:  Fri Nov 29 10:55:09 2019
  Total elapsed time: 00:00:17