
  EPA STORM WATER MANAGEMENT MODEL - VERSION 5.1 (Build 5.1.013)
  --------------------------------------------------------------

  WARNING 01: wet weather time step reduced to recording interval for Rain Gage KELLEY
  WARNING 04: minimum elevation drop used for Conduit BG-PVC-2678
  WARNING 04: minimum elevation drop used for Conduit BG-RCP-1827
  WARNING 04: minimum elevation drop used for Conduit SB-RCP-1525
  WARNING 04: minimum elevation drop used for Conduit SB-RCP-1531
  WARNING 04: minimum elevation drop used for Conduit SB-RCP-1532
  WARNING 04: minimum elevation drop used for Conduit SB-RCP-3336
  
  *************
  Element Count
  *************
  Number of rain gages ...... 1
  Number of subcatchments ... 104
  Number of nodes ........... 499
  Number of links ........... 467
  Number of pollutants ...... 2
  Number of land uses ....... 3
  
  
  *****************
  Pollutant Summary
  *****************
                               Ppt.      GW         Kdecay
  Name                 Units   Concen.   Concen.    1/days    CoPollutant
  -----------------------------------------------------------------------
  TSS                   MG/L      0.00      0.00      0.00
  COPPER                MG/L      0.00      0.00      0.00
  
  
  ***************
  Landuse Summary
  ***************
                         Sweeping   Maximum      Last
  Name                   Interval   Removal     Swept
  ---------------------------------------------------
  MIXEDUSE                   0.00      0.00      0.00
  MIXEDUSE2                  0.00      0.00      0.00
  MIXEDUSE3                  0.00      0.00      0.00
  
  
  ****************
  Raingage Summary
  ****************
                                                      Data       Recording
  Name                 Data Source                    Type       Interval 
  ------------------------------------------------------------------------
  KELLEY               TIMESERI-1                     CUMULATIVE   5 min.
  
  
  ********************
  Subcatchment Summary
  ********************
  Name                       Area     Width   %Imperv    %Slope Rain Gage            Outlet              
  -----------------------------------------------------------------------------------------------------------
  01                         4.72    951.99     55.25    6.0180 KELLEY               BG-I-5711           
  02                         2.29    761.71     55.25    5.6373 KELLEY               BG-I-5736           
  03                         3.41    778.33     55.25    8.1917 KELLEY               BG-I-5766           
  04                         9.01   1467.58     55.25    4.6437 KELLEY               BG-I-5772           
  05                         3.63    802.17     55.25   10.6803 KELLEY               BG-I-5803           
  06                         7.67   1255.93     55.25    4.9327 KELLEY               BG-I-5817           
  07                         7.21   1148.33     55.25    5.0879 KELLEY               BG-I-5848           
  08                         7.02   1214.93     55.25    6.3534 KELLEY               BG-I-5542           
  09                        16.93   1988.64     55.25    3.4461 KELLEY               BG-I-5878           
  10                        20.23   1897.45     55.25    3.1929 KELLEY               BG-I-7050           
  100                        8.50   1213.12     62.40    6.2039 KELLEY               BG-C-1704           
  101                        8.40   1237.06     62.40   21.3021 KELLEY               BG-C-1722           
  102                       10.47   1507.34     62.40   14.4592 KELLEY               BG-C-1723           
  103                        4.59    903.58     62.40   14.1250 KELLEY               BG-I-5576           
  104                        4.18    868.48     62.40   16.5693 KELLEY               BG-C-1715           
  105                        4.08    894.21     62.40   17.5681 KELLEY               BG-I-5594           
  106                        5.95   1028.24     62.40   13.5787 KELLEY               BG-I-5585           
  107                        4.12    840.51     62.40    9.8732 KELLEY               BG-C-1714           
  108                        2.77    708.45     62.40   19.9127 KELLEY               BG-I-5608           
  109                        4.44    896.86     62.40   10.5923 KELLEY               BG-I-5604           
  110                        4.05    863.80     62.40    9.6812 KELLEY               JCT-111             
  111                        3.13    738.71     62.40    8.4095 KELLEY               BG-I-7538           
  112                        7.39   1135.30     62.40    8.9061 KELLEY               BG-I-5623           
  113                        2.84    714.09     62.40    6.3699 KELLEY               BG-I-5625           
  114                        2.52    671.79     62.40    6.2300 KELLEY               BG-I-7560           
  115                        3.24    783.34     62.40    5.0966 KELLEY               BG-I-7528           
  116                        3.82    848.57     62.40    6.7419 KELLEY               BG-I-7529           
  117                        5.00   1071.54     62.40    7.3016 KELLEY               JCT-115             
  118                        3.46    815.21     62.40    7.3371 KELLEY               JCT-123             
  119                        4.49   1004.52     62.40    8.0796 KELLEY               BG-I-5512           
  120                        7.40   1284.58     62.40    6.7278 KELLEY               BG-C-1711           
  121                        6.21   1092.52     62.40   10.0490 KELLEY               BG-C-1710           
  123                        4.05    965.20     62.40    7.1150 KELLEY               BG-I-5653           
  124                        7.58   1322.28     62.40    8.6443 KELLEY               BG-C-1709           
  125                        6.81   1158.63     62.40    6.7093 KELLEY               JCT-131             
  126                        4.38   1043.16     62.40    5.4808 KELLEY               JCT-127             
  128                        8.66   1279.74     62.40    5.6137 KELLEY               BG-C-1050           
  129                        4.97    985.76     62.40    4.5358 KELLEY               BG-I-5754           
  130                        4.18   1002.40     62.40    4.1516 KELLEY               BG-C-1708           
  131                        5.88   1058.72     62.40    4.7626 KELLEY               BG-C-1706           
  132                        5.67   1020.86     62.40    5.9919 KELLEY               BG-I-5801           
  133                       11.54   1511.13     62.40    6.5419 KELLEY               JCT-134             
  134                        4.03   1104.97     62.40    5.8850 KELLEY               BG-I-7505           
  135                        6.58   1083.80     62.40    3.5545 KELLEY               BG-I-5562           
  136                       84.55   5072.21     62.40   15.8830 KELLEY               JCT-103             
  200                        9.00   1297.23     54.40    4.3824 KELLEY               BG-I-6275           
  201                       11.14   1416.72     54.40    4.1332 KELLEY               BG-C-1718           
  202                        1.07    505.80     54.40    6.7289 KELLEY               JCT-203             
  203                        3.74   1020.71     54.40    5.0347 KELLEY               JCT-205             
  204                        4.86   1018.35     54.40    3.8904 KELLEY               JCT-204             
  205                        4.44   1071.99     54.40    3.7826 KELLEY               JCT-200             
  300                        3.25    752.42     61.14    3.3197 KELLEY               BG-I-5550           
  301                        1.45    519.69     61.14    7.0382 KELLEY               BG-I-5515           
  302                        5.12    969.83     61.14    6.5993 KELLEY               BG-I-5524           
  303                        7.37   1243.84     61.14    7.2711 KELLEY               BG-I-5662           
  304                        2.86    766.04     61.14    7.4361 KELLEY               BG-I-5683           
  305                        2.07    605.34     61.14    6.3754 KELLEY               BG-I-5679           
  306                        3.31    751.79     61.14    6.3056 KELLEY               BG-I-5684           
  307                        3.18    797.42     61.14    5.2100 KELLEY               BG-I-5700           
  308                        4.71    940.92     61.14    5.9637 KELLEY               BG-I-5731           
  309                        3.31    765.38     61.14    4.9497 KELLEY               BG-I-5743           
  310                        1.35    606.82     61.14    3.6247 KELLEY               BG-I-5769           
  311                        1.36    516.33     61.14    4.8311 KELLEY               BG-I-5778           
  312                        2.29    641.68     61.14    4.1302 KELLEY               BG-I-5813           
  313                        2.81    740.11     61.14    4.1830 KELLEY               BG-I-5873           
  314                        2.12    630.17     61.14    3.7834 KELLEY               BG-I-5831           
  315                        1.63    586.18     61.14    3.9429 KELLEY               BG-I-5840           
  316                        2.00    643.12     61.14    3.0842 KELLEY               BG-I-5846           
  317                        2.65    698.95     61.14    2.8091 KELLEY               BG-I-5871           
  318                        2.54    710.52     61.14    2.8234 KELLEY               BG-I-7057           
  400                       14.32   2095.78     62.90    5.7537 KELLEY               AB-I-7124           
  401                        7.08   1553.83     62.90    5.6735 KELLEY               AB-I-6004           
  402                        5.58   1608.22     62.90    4.0949 KELLEY               AB-I-6033           
  403                        8.20   2215.18     62.90    4.1376 KELLEY               JCT-404             
  404                       13.11   1784.02     62.90    4.5390 KELLEY               JCT-420             
  405                       31.85   2358.56     62.90    5.9850 KELLEY               JCT-418             
  406                       16.49   2314.48     62.90    4.7033 KELLEY               JCT-417             
  407                        6.07   1210.88     62.90    5.1742 KELLEY               AB-I-6028           
  408                        4.48    909.67     62.90    3.5720 KELLEY               JCT-409             
  409                        4.62    969.54     62.90    3.3548 KELLEY               AB-I-6041           
  410                        9.98   1985.70     62.90    4.6298 KELLEY               BG-I-6304           
  500                        8.25   1400.10     58.22    6.0246 KELLEY               WA-I-6109           
  501                       18.68   2213.40     58.22    9.1749 KELLEY               JCT-508             
  502                        2.32    691.93     58.22    4.5191 KELLEY               WA-I-6073           
  503                        9.22   1440.46     58.22    5.0385 KELLEY               WA-I-6072           
  504                       27.97   2478.73     58.22    6.4698 KELLEY               JCT-504             
  505                        8.26   1335.16     58.22    7.7540 KELLEY               WA-I-6100           
  506                        3.98    826.45     58.22    4.8807 KELLEY               WA-I-6084           
  507                        9.74   1345.21     58.22    5.2361 KELLEY               WA-I-6097           
  508                       10.48   1715.45     58.22    4.1553 KELLEY               WA-I-6111           
  509                        4.66    972.34     58.22    3.3994 KELLEY               WA-I-6101           
  510                       12.70   1575.74     58.22    5.5783 KELLEY               JCT-508             
  600                       78.03   3753.23     40.67    2.3800 KELLEY               JCT-611             
  601                       17.14   2559.66     40.67    2.1500 KELLEY               SB-I-6444           
  602                       19.25   1822.06     40.67    2.0326 KELLEY               SB-I-6352           
  603                       23.23   2013.97     40.67    2.9606 KELLEY               SB-I-6446           
  604                       44.22   3272.86     40.67    2.3800 KELLEY               JCT-636             
  605                       53.89   3092.06     40.67    2.3800 KELLEY               JCT-638             
  606                       48.21   2992.86     40.67    2.3800 KELLEY               SB-I-6316           
  607                       24.48   2592.13     40.67    2.3800 KELLEY               JCT-628             
  608                       68.78   4081.71     40.67    2.3800 KELLEY               JCT-623             
  609                       30.60   2583.89     40.67    2.3800 KELLEY               SB-I-6319           
  610                       31.43   2699.70     40.67    2.3800 KELLEY               JCT-614             
  611                       48.80   3392.58     40.67    2.3800 KELLEY               JCT-616             
  
  
  ************
  Node Summary
  ************
                                           Invert      Max.    Ponded    External
  Name                 Type                 Elev.     Depth      Area    Inflow  
  -------------------------------------------------------------------------------
  AB-I-6004            JUNCTION           5590.71      0.83       0.0
  AB-I-6005            JUNCTION           5588.54      1.00       0.0
  AB-I-6014            JUNCTION           5569.20      0.83       0.0
  AB-I-6028            JUNCTION           5515.81      2.50       0.0
  AB-I-6033            JUNCTION           5537.66      1.00       0.0
  AB-I-6036            JUNCTION           5519.84      1.00       0.0
  AB-I-6038            JUNCTION           5520.33      1.00       0.0
  AB-I-6039            JUNCTION           5504.37      1.00       0.0
  AB-I-6040            JUNCTION           5504.85      1.00       0.0
  AB-I-6041            JUNCTION           5499.02      1.00       0.0
  AB-I-6042            JUNCTION           5502.94      1.00       0.0
  AB-I-6043            JUNCTION           5503.35      1.00       0.0
  AB-I-6044            JUNCTION           5500.97      1.00       0.0
  AB-I-7034            JUNCTION           5502.76      2.50       0.0
  AB-I-7037            JUNCTION           5502.69      3.50       0.0
  AB-I-7038            JUNCTION           5500.59      4.00       0.0
  AB-I-7059            JUNCTION           5521.45      1.00       0.0
  AB-I-7123            JUNCTION           5465.77      4.00       0.0
  AB-I-7124            JUNCTION           5467.23      4.00       0.0
  AB-I-7420            JUNCTION           5624.84      0.83       0.0
  AR-HD-IN             JUNCTION           5500.00      3.50       0.0
  AR-MH-01             JUNCTION           5463.87      4.00       0.0
  BG-C-0703            JUNCTION           5457.36      3.00       0.0
  BG-C-1050            JUNCTION           5553.89      5.00       0.0
  BG-C-1700            JUNCTION           5448.07      3.00       0.0
  BG-C-1701            JUNCTION           5453.76      3.00       0.0
  BG-C-1703            JUNCTION           5471.48      3.00       0.0
  BG-C-1704            JUNCTION           5485.57      3.00       0.0
  BG-C-1705            JUNCTION           5487.32      0.00       0.0
  BG-C-1706            JUNCTION           5534.88      5.00       0.0
  BG-C-1708            JUNCTION           5547.35      5.00       0.0
  BG-C-1709            JUNCTION           5583.78      5.00       0.0
  BG-C-1710            JUNCTION           5614.67      5.00       0.0
  BG-C-1711            JUNCTION           5645.75      5.00       0.0
  BG-C-1712            JUNCTION           5711.36      5.00       0.0
  BG-C-1713            JUNCTION           5775.16      5.00       0.0
  BG-C-1714            JUNCTION           5775.95      5.00       0.0
  BG-C-1715            JUNCTION           5818.13      5.00       0.0
  BG-C-1718            JUNCTION           5454.84      3.00       0.0
  BG-C-1720            JUNCTION           5883.54      3.00       0.0
  BG-C-1722            JUNCTION           5855.36      3.00       0.0
  BG-C-1723            JUNCTION           5855.36      3.00       0.0
  BG-C-1724            JUNCTION           5822.25      2.00       0.0
  BG-CLV-01            JUNCTION           5441.36      3.00       0.0
  BG-HD-IN             JUNCTION           5464.86      3.00       0.0
  BG-I-0028            JUNCTION           5716.17      0.83       0.0
  BG-I-0030            JUNCTION           5839.32      1.00       0.0
  BG-I-5495            JUNCTION           5688.81      0.00       0.0
  BG-I-5502            JUNCTION           5669.89      0.00       0.0
  BG-I-5503            JUNCTION           5670.50      0.83       0.0
  BG-I-5504            JUNCTION           5669.03      0.00       0.0
  BG-I-5505            JUNCTION           5668.63      0.00       0.0
  BG-I-5506            JUNCTION           5655.93      0.83       0.0
  BG-I-5507            JUNCTION           5673.18      0.00       0.0
  BG-I-5508            JUNCTION           5656.07      0.83       0.0
  BG-I-5512            JUNCTION           5665.44      5.00       0.0
  BG-I-5513            JUNCTION           5670.45      0.00       0.0
  BG-I-5515            JUNCTION           5636.12      0.83       0.0
  BG-I-5519            JUNCTION           5648.58      1.00       0.0
  BG-I-5524            JUNCTION           5632.70      0.83       0.0
  BG-I-5525            JUNCTION           5636.08      0.83       0.0
  BG-I-5530            JUNCTION           5641.36      0.83       0.0
  BG-I-5531            JUNCTION           5644.11      0.83       0.0
  BG-I-5533            JUNCTION           5629.94      0.83       0.0
  BG-I-5541            JUNCTION           5490.93      1.00       0.0
  BG-I-5542            JUNCTION           5498.96      0.83       0.0
  BG-I-5546            JUNCTION           5498.87      0.67       0.0
  BG-I-5547            JUNCTION           5498.85      0.67       0.0
  BG-I-5548            JUNCTION           5489.58      1.00       0.0
  BG-I-5550            JUNCTION           5488.99      2.00       0.0
  BG-I-5553            JUNCTION           5497.93      0.83       0.0
  BG-I-5562            JUNCTION           5495.53      1.50       0.0
  BG-I-5571            JUNCTION           5849.22      0.67       0.0
  BG-I-5576            JUNCTION           5823.36      1.00       0.0
  BG-I-5577            JUNCTION           5825.69      0.67       0.0
  BG-I-5578            JUNCTION           5859.50      0.67       0.0
  BG-I-5579            JUNCTION           5818.56      5.00       0.0
  BG-I-5581            JUNCTION           5820.00      0.67       0.0
  BG-I-5582            JUNCTION           5858.75      0.67       0.0
  BG-I-5583            JUNCTION           5823.87      0.67       0.0
  BG-I-5585            JUNCTION           5778.81      5.00       0.0
  BG-I-5592            JUNCTION           5816.76      0.67       0.0
  BG-I-5594            JUNCTION           5815.36      1.00       0.0
  BG-I-5595            JUNCTION           5766.45      5.00       0.0
  BG-I-5602            JUNCTION           5789.23      1.00       0.0
  BG-I-5604            JUNCTION           5756.24      0.67       0.0
  BG-I-5605            JUNCTION           5757.22      0.67       0.0
  BG-I-5606            JUNCTION           5757.84      0.67       0.0
  BG-I-5607            JUNCTION           5782.42      0.00       0.0
  BG-I-5608            JUNCTION           5786.55      1.00       0.0
  BG-I-5613            JUNCTION           5737.27      5.00       0.0
  BG-I-5614            JUNCTION           5756.22      0.67       0.0
  BG-I-5617            JUNCTION           5753.54      0.67       0.0
  BG-I-5619            JUNCTION           5728.23      0.67       0.0
  BG-I-5621            JUNCTION           5721.36      5.00       0.0
  BG-I-5623            JUNCTION           5733.58      0.67       0.0
  BG-I-5625            JUNCTION           5720.21      5.00       0.0
  BG-I-5626            JUNCTION           5730.15      0.67       0.0
  BG-I-5628            JUNCTION           5711.00      0.67       0.0
  BG-I-5632            JUNCTION           5711.31      0.83       0.0
  BG-I-5633            JUNCTION           5716.33      1.00       0.0
  BG-I-5635            JUNCTION           5716.69      0.67       0.0
  BG-I-5637            JUNCTION           5709.55      1.00       0.0
  BG-I-5638            JUNCTION           5713.24      1.00       0.0
  BG-I-5644            JUNCTION           5485.60      0.83       0.0
  BG-I-5646            JUNCTION           5483.64      1.00       0.0
  BG-I-5648            JUNCTION           5482.61      0.83       0.0
  BG-I-5649            JUNCTION           5476.23      1.50       0.0
  BG-I-5650            JUNCTION           5473.57      0.83       0.0
  BG-I-5651            JUNCTION           5613.77      0.83       0.0
  BG-I-5653            JUNCTION           5624.67      1.00       0.0
  BG-I-5662            JUNCTION           5607.43      0.83       0.0
  BG-I-5672            JUNCTION           5602.98      1.00       0.0
  BG-I-5674            JUNCTION           5599.69      0.83       0.0
  BG-I-5679            JUNCTION           5590.12      0.83       0.0
  BG-I-5680            JUNCTION           5591.36      0.83       0.0
  BG-I-5683            JUNCTION           5595.07      0.83       0.0
  BG-I-5684            JUNCTION           5589.09      3.00       0.0
  BG-I-5694            JUNCTION           5577.32      3.00       0.0
  BG-I-5700            JUNCTION           5572.65      2.00       0.0
  BG-I-5706            JUNCTION           5568.07      2.00       0.0
  BG-I-5710            JUNCTION           5569.81      0.00       0.0
  BG-I-5711            JUNCTION           5571.44      0.83       0.0
  BG-I-5720            JUNCTION           5568.73      0.00       0.0
  BG-I-5721            JUNCTION           5570.99      0.83       0.0
  BG-I-5728            JUNCTION           5573.53      1.00       0.0
  BG-I-5729            JUNCTION           5561.27      2.00       0.0
  BG-I-5730            JUNCTION           5568.79      0.00       0.0
  BG-I-5731            JUNCTION           5556.95      2.00       0.0
  BG-I-5733            JUNCTION           5555.92      2.00       0.0
  BG-I-5736            JUNCTION           5553.44      0.83       0.0
  BG-I-5738            JUNCTION           5552.23      0.83       0.0
  BG-I-5740            JUNCTION           5554.90      1.00       0.0
  BG-I-5742            JUNCTION           5553.93      1.00       0.0
  BG-I-5743            JUNCTION           5548.65      2.00       0.0
  BG-I-5745            JUNCTION           5552.29      1.00       0.0
  BG-I-5750            JUNCTION           5551.41      1.00       0.0
  BG-I-5751            JUNCTION           5546.31      2.00       0.0
  BG-I-5753            JUNCTION           5548.40      5.00       0.0
  BG-I-5754            JUNCTION           5551.36      1.00       0.0
  BG-I-5763            JUNCTION           5549.73      1.00       0.0
  BG-I-5764            JUNCTION           5548.70      1.00       0.0
  BG-I-5766            JUNCTION           5529.40      0.83       0.0
  BG-I-5768            JUNCTION           5529.36      0.83       0.0
  BG-I-5769            JUNCTION           5541.19      2.00       0.0
  BG-I-5772            JUNCTION           5538.95      1.00       0.0
  BG-I-5774            JUNCTION           5533.78      2.00       0.0
  BG-I-5775            JUNCTION           5537.14      1.00       0.0
  BG-I-5778            JUNCTION           5531.80      2.00       0.0
  BG-I-5783            JUNCTION           5536.38      5.00       0.0
  BG-I-5784            JUNCTION           5533.36      1.00       0.0
  BG-I-5785            JUNCTION           5519.36      1.00       0.0
  BG-I-5791            JUNCTION           5532.56      0.83       0.0
  BG-I-5793            JUNCTION           5532.23      1.00       0.0
  BG-I-5800            JUNCTION           5531.73      0.83       0.0
  BG-I-5801            JUNCTION           5531.48      1.00       0.0
  BG-I-5802            JUNCTION           5531.56      0.83       0.0
  BG-I-5803            JUNCTION           5516.38      1.00       0.0
  BG-I-5804            JUNCTION           5532.37      0.83       0.0
  BG-I-5807            JUNCTION           5513.99      1.00       0.0
  BG-I-5809            JUNCTION           5511.74      1.00       0.0
  BG-I-5810            JUNCTION           5518.62      2.00       0.0
  BG-I-5811            JUNCTION           5511.84      0.83       0.0
  BG-I-5812            JUNCTION           5527.36      0.83       0.0
  BG-I-5813            JUNCTION           5518.41      2.00       0.0
  BG-I-5817            JUNCTION           5518.88      0.83       0.0
  BG-I-5818            JUNCTION           5529.00      5.00       0.0
  BG-I-5819            JUNCTION           5516.55      1.00       0.0
  BG-I-5820            JUNCTION           5527.36      0.83       0.0
  BG-I-5822            JUNCTION           5525.36      1.50       0.0
  BG-I-5827            JUNCTION           5518.16      0.83       0.0
  BG-I-5828            JUNCTION           5505.70      0.83       0.0
  BG-I-5830            JUNCTION           5509.02      1.00       0.0
  BG-I-5831            JUNCTION           5505.29      1.00       0.0
  BG-I-5834            JUNCTION           5507.79      1.00       0.0
  BG-I-5835            JUNCTION           5492.77      0.83       0.0
  BG-I-5837            JUNCTION           5504.29      1.00       0.0
  BG-I-5838            JUNCTION           5493.62      0.83       0.0
  BG-I-5840            JUNCTION           5504.20      1.00       0.0
  BG-I-5842            JUNCTION           5492.32      1.00       0.0
  BG-I-5844            JUNCTION           5500.56      1.00       0.0
  BG-I-5846            JUNCTION           5492.19      1.00       0.0
  BG-I-5848            JUNCTION           5499.66      1.00       0.0
  BG-I-5849            JUNCTION           5499.36      1.33       0.0
  BG-I-5853            JUNCTION           5512.22      0.83       0.0
  BG-I-5854            JUNCTION           5502.40      2.00       0.0
  BG-I-5855            JUNCTION           5511.64      1.50       0.0
  BG-I-5860            JUNCTION           5509.93      1.50       0.0
  BG-I-5861            JUNCTION           5510.05      1.50       0.0
  BG-I-5862            JUNCTION           5510.99      0.83       0.0
  BG-I-5863            JUNCTION           5498.46      1.33       0.0
  BG-I-5868            JUNCTION           5491.68      1.00       0.0
  BG-I-5870            JUNCTION           5498.38      0.83       0.0
  BG-I-5871            JUNCTION           5491.55      1.00       0.0
  BG-I-5873            JUNCTION           5499.23      2.00       0.0
  BG-I-5874            JUNCTION           5496.06      1.33       0.0
  BG-I-5875            JUNCTION           5505.86      1.50       0.0
  BG-I-5878            JUNCTION           5472.61      1.00       0.0
  BG-I-5879            JUNCTION           5471.78      1.00       0.0
  BG-I-5880            JUNCTION           5471.90      0.83       0.0
  BG-I-5905            JUNCTION           5840.34      1.00       0.0
  BG-I-6275            JUNCTION           5453.84      1.50       0.0
  BG-I-6279            JUNCTION           5470.00      1.00       0.0
  BG-I-6280            JUNCTION           5468.94      1.00       0.0
  BG-I-6304            JUNCTION           5468.88      3.50       0.0
  BG-I-7035            JUNCTION           5507.28      0.83       0.0
  BG-I-7043            JUNCTION           5491.11      1.33       0.0
  BG-I-7044            JUNCTION           5490.26      1.33       0.0
  BG-I-7050            JUNCTION           5479.34      1.50       0.0
  BG-I-7051            JUNCTION           5478.84      1.50       0.0
  BG-I-7052            JUNCTION           5475.36      1.50       0.0
  BG-I-7053            JUNCTION           5492.54      1.00       0.0
  BG-I-7057            JUNCTION           5491.03      1.00       0.0
  BG-I-7064            JUNCTION           5650.51      0.83       0.0
  BG-I-7070            JUNCTION           6021.98      1.50       0.0
  BG-I-7071            JUNCTION           5999.00      2.00       0.0
  BG-I-7072            JUNCTION           5998.61      3.00       0.0
  BG-I-7134            JUNCTION           5460.51      4.17       0.0
  BG-I-7424            JUNCTION           5606.35      0.83       0.0
  BG-I-7425            JUNCTION           5605.83      1.00       0.0
  BG-I-7426            JUNCTION           5604.78      1.00       0.0
  BG-I-7428            JUNCTION           6104.01      2.00       0.0
  BG-I-7503            JUNCTION           5457.84      3.00       0.0
  BG-I-7505            JUNCTION           5505.39      1.50       0.0
  BG-I-7508            JUNCTION           5529.50      5.00       0.0
  BG-I-7519            JUNCTION           5587.47      5.00       0.0
  BG-I-7520            JUNCTION           5676.11      0.00       0.0
  BG-I-7521            JUNCTION           5679.50      0.00       0.0
  BG-I-7523            JUNCTION           5670.31      5.00       0.0
  BG-I-7527            JUNCTION           5709.62      1.00       0.0
  BG-I-7528            JUNCTION           5708.36      5.00       0.0
  BG-I-7529            JUNCTION           5708.57      1.00       0.0
  BG-I-7530            JUNCTION           5709.44      5.00       0.0
  BG-I-7531            JUNCTION           5710.63      0.67       0.0
  BG-I-7534            JUNCTION           5540.43      1.00       0.0
  BG-I-7535            JUNCTION           5691.96      1.00       0.0
  BG-I-7536            JUNCTION           5704.58      1.00       0.0
  BG-I-7538            JUNCTION           5735.26      5.00       0.0
  BG-I-7541            JUNCTION           5721.00      1.00       0.0
  BG-I-7542            JUNCTION           5728.72      5.00       0.0
  BG-I-7543            JUNCTION           5729.25      1.00       0.0
  BG-I-7544            JUNCTION           5733.42      1.00       0.0
  BG-I-7545            JUNCTION           5736.95      1.00       0.0
  BG-I-7547            JUNCTION           5744.41      5.00       0.0
  BG-I-7548            JUNCTION           5749.26      5.00       0.0
  BG-I-7552            JUNCTION           5775.36      5.00       0.0
  BG-I-7555            JUNCTION           5858.47      0.67       0.0
  BG-I-7557            JUNCTION           5782.92      0.67       0.0
  BG-I-7558            JUNCTION           5783.26      1.00       0.0
  BG-I-7559            JUNCTION           5724.12      0.67       0.0
  BG-I-7560            JUNCTION           5712.63      1.00       0.0
  BG-I-9967            JUNCTION           6105.22      1.00       0.0
  BG-I-9974            JUNCTION           6129.36      2.00       0.0
  BG-I-9977            JUNCTION           6061.79      2.00       0.0
  BG-I-9978            JUNCTION           6031.04      1.50       0.0
  BG-I-9982            JUNCTION           6139.36      2.00       0.0
  BG-I-9983            JUNCTION           6105.21      1.00       0.0
  BG-I-9985            JUNCTION           6100.16      1.50       0.0
  BG-M-1032            JUNCTION           5756.96      5.00       0.0
  BG-M-1049            JUNCTION           5564.19      5.00       0.0
  BG-M-1707            JUNCTION           5528.45      5.00       0.0
  BG-M-17171           JUNCTION           5853.00      3.00       0.0
  BG-M-1719            JUNCTION           5893.36      5.00       0.0
  BG-M-1721            JUNCTION           5866.65      3.00       0.0
  BG-M-7721            JUNCTION           6094.67      2.00       0.0
  BG-MH-B1             JUNCTION           5465.33      1.00       0.0    Yes
  JCT-01               JUNCTION           5488.26      1.50       0.0
  JCT-02               JUNCTION           5533.62      0.00       0.0
  JCT-100              JUNCTION           6151.36      2.00       0.0
  JCT-101              JUNCTION           6122.11      1.00       0.0
  JCT-102              JUNCTION           6048.58      2.00       0.0
  JCT-103              JUNCTION           6017.64      2.00       0.0
  JCT-104              JUNCTION           5955.83      5.00       0.0
  JCT-105              JUNCTION           5931.36      5.00       0.0
  JCT-106              JUNCTION           5927.88      5.00       0.0
  JCT-107              JUNCTION           5837.91      0.83       0.0
  JCT-108              JUNCTION           5844.32      0.67       0.0
  JCT-109              JUNCTION           5814.17      0.83       0.0
  JCT-110              JUNCTION           5788.05      5.00       0.0
  JCT-111              JUNCTION           5753.90      5.00       0.0
  JCT-112              JUNCTION           5748.34      1.00       0.0
  JCT-113              JUNCTION           5726.68      0.00       0.0
  JCT-114              JUNCTION           5709.11      0.83       0.0
  JCT-115              JUNCTION           5687.86      5.00       0.0
  JCT-116              JUNCTION           5688.81      0.83       0.0
  JCT-117              JUNCTION           5671.00      0.83       0.0
  JCT-118              JUNCTION           5669.03      0.83       0.0
  JCT-119              JUNCTION           5668.63      5.00       0.0
  JCT-120              JUNCTION           5679.50      0.67       0.0
  JCT-121              JUNCTION           5676.11      0.67       0.0
  JCT-122              JUNCTION           5673.18      0.67       0.0
  JCT-123              JUNCTION           5670.45      0.83       0.0
  JCT-124              JUNCTION           5646.59      0.00       0.0
  JCT-125              JUNCTION           5600.86      1.00       0.0
  JCT-126              JUNCTION           5599.42      1.00       0.0
  JCT-127              JUNCTION           5575.61      1.00       0.0
  JCT-128              JUNCTION           5568.79      1.00       0.0
  JCT-129              JUNCTION           5533.01      0.83       0.0
  JCT-130              JUNCTION           5573.35      0.00       0.0
  JCT-131              JUNCTION           5569.81      5.00       0.0
  JCT-132              JUNCTION           5568.73      5.00       0.0
  JCT-133              JUNCTION           5520.76      5.00       0.0
  JCT-134              JUNCTION           5506.26      5.00       0.0
  JCT-135              JUNCTION           5574.82      1.00       0.0
  JCT-200              JUNCTION           5477.30      0.00       0.0
  JCT-201              JUNCTION           5463.10      0.00       0.0
  JCT-202              JUNCTION           5455.36      5.00       0.0
  JCT-203              JUNCTION           5447.36      5.00       0.0
  JCT-204              JUNCTION           5447.21      5.00       0.0
  JCT-205              JUNCTION           5443.21      3.00       0.0
  JCT-206              JUNCTION           5436.66      5.00       0.0
  JCT-300              JUNCTION           5500.93      2.00       0.0
  JCT-302              JUNCTION           5593.21      0.83       0.0
  JCT-400              JUNCTION           5587.50      4.00       0.0
  JCT-402              JUNCTION           5570.79      4.00       0.0
  JCT-404              JUNCTION           5543.30      3.00       0.0
  JCT-405              JUNCTION           5517.86      3.50       0.0
  JCT-406              JUNCTION           5529.45      2.00       0.0
  JCT-407              JUNCTION           5519.63      1.00       0.0
  JCT-409              JUNCTION           5501.35      4.00       0.0
  JCT-410              JUNCTION           5495.36      3.50       0.0
  JCT-411              JUNCTION           5533.61      0.83       0.0
  JCT-413              JUNCTION           5465.36      4.00       0.0
  JCT-417              JUNCTION           5533.63      1.00       0.0
  JCT-418              JUNCTION           5547.02      1.00       0.0
  JCT-419              JUNCTION           5540.05      1.00       0.0
  JCT-420              JUNCTION           5538.51      1.00       0.0
  JCT-421              JUNCTION           5540.00      1.00       0.0
  JCT-500              JUNCTION           5562.05      0.83       0.0
  JCT-501              JUNCTION           5566.95      2.00       0.0
  JCT-502              JUNCTION           5537.27      4.00       0.0
  JCT-503              JUNCTION           5533.86      4.00       0.0
  JCT-504              JUNCTION           5514.89      4.00       0.0
  JCT-505              JUNCTION           5503.36      1.00       0.0
  JCT-506              JUNCTION           5481.36      4.00       0.0
  JCT-507              JUNCTION           5470.43      3.00       0.0
  JCT-508              JUNCTION           5469.27      3.00       0.0
  JCT-510              JUNCTION           5566.09      2.00       0.0
  JCT-600              JUNCTION           5504.06      0.83       0.0
  JCT-601              JUNCTION           5504.71      0.83       0.0
  JCT-602              JUNCTION           5503.03      0.83       0.0
  JCT-603              JUNCTION           5507.45      0.83       0.0
  JCT-605              JUNCTION           5505.50      1.00       0.0
  JCT-607              JUNCTION           5478.00      1.00       0.0
  JCT-608              JUNCTION           5476.29      0.83       0.0
  JCT-609              JUNCTION           5479.36      0.83       0.0
  JCT-610              JUNCTION           5479.36      0.83       0.0
  JCT-611              JUNCTION           5499.96      1.00       0.0
  JCT-612              JUNCTION           5479.36      0.83       0.0
  JCT-613              JUNCTION           5479.36      0.83       0.0
  JCT-614              JUNCTION           5484.44      0.83       0.0
  JCT-615              JUNCTION           5501.00      0.83       0.0
  JCT-616              JUNCTION           5502.30      0.83       0.0
  JCT-617              JUNCTION           5503.62      0.83       0.0
  JCT-618              JUNCTION           5504.88      1.00       0.0
  JCT-619              JUNCTION           5506.15      1.00       0.0
  JCT-620              JUNCTION           5505.61      1.00       0.0
  JCT-621              JUNCTION           5506.23      1.00       0.0
  JCT-622              JUNCTION           5506.84      1.00       0.0
  JCT-623              JUNCTION           5507.44      1.00       0.0
  JCT-624              JUNCTION           5508.67      0.83       0.0
  JCT-625              JUNCTION           5508.04      1.00       0.0
  JCT-626              JUNCTION           5508.65      1.00       0.0
  JCT-627              JUNCTION           5510.70      1.00       0.0
  JCT-628              JUNCTION           5510.50      1.00       0.0
  JCT-629              JUNCTION           5509.25      1.00       0.0
  JCT-631              JUNCTION           5510.37      1.00       0.0
  JCT-632              JUNCTION           5509.77      1.00       0.0
  JCT-634              JUNCTION           5512.18      0.83       0.0
  JCT-635              JUNCTION           5513.70      0.83       0.0
  JCT-636              JUNCTION           5511.08      0.83       0.0
  JCT-637              JUNCTION           5512.63      0.83       0.0
  JCT-638              JUNCTION           5515.25      0.83       0.0
  JCT-639              JUNCTION           5514.12      0.83       0.0
  JCT-640              JUNCTION           5511.50      1.50       0.0
  JCT-642              JUNCTION           5465.36      1.00       0.0
  JCT-644              JUNCTION           5474.33      0.83       0.0
  JCT-645              JUNCTION           5467.68      0.83       0.0
  JCT-646              JUNCTION           5467.36      0.83       0.0
  JCT-648              JUNCTION           5467.69      0.83       0.0
  JCT-649              JUNCTION           5476.66      1.00       0.0
  JCT-650              JUNCTION           5476.87      0.83       0.0
  JCT-651              JUNCTION           5478.44      0.83       0.0
  JCT-653              JUNCTION           5502.36      0.83       0.0
  JCT-654              JUNCTION           5500.00      1.00       0.0
  JCT-656              JUNCTION           5474.00      1.00       0.0
  SB-I-6314            JUNCTION           5472.50      0.00       0.0
  SB-I-6316            JUNCTION           5512.36      0.83       0.0
  SB-I-6317            JUNCTION           5507.55      0.83       0.0
  SB-I-6319            JUNCTION           5475.00      0.83       0.0
  SB-I-6330            JUNCTION           5464.37      1.00       0.0
  SB-I-6332            JUNCTION           5474.73      1.00       0.0
  SB-I-6333            JUNCTION           5475.72      1.00       0.0
  SB-I-6337            JUNCTION           5478.70      1.00       0.0
  SB-I-6343            JUNCTION           5461.63      0.83       0.0
  SB-I-6344            JUNCTION           5462.28      0.83       0.0
  SB-I-6347            JUNCTION           5466.35      0.83       0.0
  SB-I-6349            JUNCTION           5472.25      1.00       0.0
  SB-I-6350            JUNCTION           5472.44      1.00       0.0
  SB-I-6352            JUNCTION           5465.54      1.00       0.0
  SB-I-6411            JUNCTION           5467.36      1.00       0.0
  SB-I-6412            JUNCTION           5472.31      0.83       0.0
  SB-I-6413            JUNCTION           5460.88      0.83       0.0
  SB-I-6415            JUNCTION           5510.55      1.50       0.0
  SB-I-6416            JUNCTION           5476.90      0.83       0.0
  SB-I-6419            JUNCTION           5479.92      0.83       0.0
  SB-I-6420            JUNCTION           5477.00      0.83       0.0
  SB-I-6422            JUNCTION           5472.64      0.83       0.0
  SB-I-6423            JUNCTION           5459.81      0.83       0.0
  SB-I-6424            JUNCTION           5481.52      0.83       0.0
  SB-I-6426            JUNCTION           5459.48      1.50       0.0
  SB-I-6427            JUNCTION           5459.77      1.50       0.0
  SB-I-6428            JUNCTION           5459.83      1.50       0.0
  SB-I-6429            JUNCTION           5460.12      1.33       0.0
  SB-I-6430            JUNCTION           5460.10      1.33       0.0
  SB-I-6431            JUNCTION           5503.09      0.83       0.0
  SB-I-6433            JUNCTION           5463.10      1.33       0.0
  SB-I-6440            JUNCTION           5483.20      0.83       0.0
  SB-I-6442            JUNCTION           5503.20      0.83       0.0
  SB-I-6443            JUNCTION           5470.31      1.00       0.0
  SB-I-6444            JUNCTION           5463.36      1.33       0.0
  SB-I-6445            JUNCTION           5464.08      1.00       0.0
  SB-I-6446            JUNCTION           5473.26      0.83       0.0
  SB-I-6449            JUNCTION           5466.93      1.00       0.0
  SB-I-6450            JUNCTION           5467.36      1.00       0.0
  SB-I-6452            JUNCTION           5473.82      0.83       0.0
  SB-I-6453            JUNCTION           5490.20      0.83       0.0
  SB-I-6454            JUNCTION           5491.61      0.83       0.0
  SB-I-6455            JUNCTION           5467.36      1.00       0.0
  SB-I-6456            JUNCTION           5503.92      0.83       0.0
  SB-I-6458            JUNCTION           5492.43      0.83       0.0
  SB-I-6459            JUNCTION           5473.96      0.83       0.0
  SB-I-6460            JUNCTION           5504.00      0.83       0.0
  SB-I-6462            JUNCTION           5467.50      0.83       0.0
  SB-I-6464            JUNCTION           5465.36      0.83       0.0
  SB-I-6465            JUNCTION           5465.43      0.83       0.0
  SB-I-6467            JUNCTION           5509.50      0.83       0.0
  SB-I-6473            JUNCTION           5468.36      1.00       0.0
  SB-I-6475            JUNCTION           5468.51      1.00       0.0
  SB-I-6477            JUNCTION           5474.67      0.83       0.0
  SB-I-6478            JUNCTION           5467.50      0.83       0.0
  SB-I-6480            JUNCTION           5504.73      0.83       0.0
  SB-I-6485            JUNCTION           5482.07      0.83       0.0
  SB-I-6486            JUNCTION           5471.51      0.83       0.0
  SB-I-6491            JUNCTION           5468.75      0.83       0.0
  SB-I-6493            JUNCTION           5467.77      0.83       0.0
  SB-I-6498            JUNCTION           5475.32      0.83       0.0
  SB-I-6500            JUNCTION           5468.00      0.83       0.0
  SB-I-6502            JUNCTION           5490.84      0.83       0.0
  SB-I-6504            JUNCTION           5468.80      0.83       0.0
  SB-I-6508            JUNCTION           5475.90      0.83       0.0
  SB-I-6510            JUNCTION           5491.77      0.83       0.0
  SB-I-6518            JUNCTION           5515.98      0.83       0.0
  SB-I-6550            JUNCTION           5517.40      0.83       0.0
  SB-I-6573            JUNCTION           5514.25      0.83       0.0
  SB-I-7058            JUNCTION           5488.78      2.00       0.0
  SB-I-7101            JUNCTION           5507.35      1.00       0.0
  SB-I-7112            JUNCTION           5475.36      1.00       0.0
  SB-I-7435            JUNCTION           5516.94      0.83       0.0
  TX-HD-IN             JUNCTION           5475.40      0.83       0.0
  WA-HD-IN             JUNCTION           5471.00      3.00       0.0
  WA-I-1052            JUNCTION           5497.85      4.00       0.0
  WA-I-6058            JUNCTION           5568.50      2.00       0.0
  WA-I-6070            JUNCTION           5550.63      2.00       0.0
  WA-I-6071            JUNCTION           5547.36      2.50       0.0
  WA-I-6072            JUNCTION           5547.00      2.50       0.0
  WA-I-6073            JUNCTION           5548.57      2.00       0.0
  WA-I-6074            JUNCTION           5544.12      4.00       0.0
  WA-I-6084            JUNCTION           5518.29      0.83       0.0
  WA-I-6086            JUNCTION           5499.91      4.00       0.0
  WA-I-6088            JUNCTION           5498.72      1.00       0.0
  WA-I-6089            JUNCTION           5513.78      1.00       0.0
  WA-I-6094            JUNCTION           5498.08      1.00       0.0
  WA-I-6095            JUNCTION           5513.13      1.00       0.0
  WA-I-6096            JUNCTION           5510.13      0.83       0.0
  WA-I-6097            JUNCTION           5510.00      0.83       0.0
  WA-I-6098            JUNCTION           5499.83      1.00       0.0
  WA-I-6099            JUNCTION           5499.70      1.00       0.0
  WA-I-6100            JUNCTION           5497.36      4.00       0.0
  WA-I-6101            JUNCTION           5502.13      1.00       0.0
  WA-I-6105            JUNCTION           5501.15      1.00       0.0
  WA-I-6106            JUNCTION           5500.61      1.00       0.0
  WA-I-6107            JUNCTION           5494.65      1.00       0.0
  WA-I-6108            JUNCTION           5494.14      0.83       0.0
  WA-I-6109            JUNCTION           5488.01      4.00       0.0
  WA-I-6111            JUNCTION           5485.56      4.00       0.0
  WA-I-7033            JUNCTION           5489.23      4.00       0.0
  BG-CH-C1             OUTFALL            5453.36      2.00       0.0
  JCT-207              OUTFALL            5436.00      5.00       0.0
  JCT-414              OUTFALL            5460.17      2.00       0.0
  JCT-415              OUTFALL            5536.63      1.00       0.0
  JCT-422              OUTFALL            5463.38      4.00       0.0
  JCT-509              OUTFALL            5467.51      3.00       0.0
  JCT-606              OUTFALL            5467.44      0.83       0.0
  JCT-641              OUTFALL            5459.36      1.00       0.0
  JCT-652              OUTFALL            5459.36      1.50       0.0
  JCT-HDOUTLET         OUTFALL            5472.50      0.83       0.0
  STOR-SB1             STORAGE            5536.00      9.50       0.0
  STOR-SB2             STORAGE            5528.00      5.00       0.0
  
  
  ************
  Link Summary
  ************
  Name             From Node        To Node          Type            Length    %Slope Roughness
  ---------------------------------------------------------------------------------------------
  AB-C-1460        JCT-420          JCT-417          CONDUIT          570.5    0.8565    0.0100
  AB-PVC-2700      AB-I-7420        JCT-411          CONDUIT         1859.0    4.9130    0.0100
  AB-RCP-1432      AB-I-6005        JCT-400          CONDUIT           36.7    2.8347    0.0100
  AB-RCP-1434      JCT-400          JCT-402          CONDUIT          396.0    4.2234    0.0100
  AB-RCP-1441      JCT-402          JCT-404          CONDUIT          662.8    4.1523    0.0100
  AB-RCP-1444      AB-I-6014        AB-I-6033        CONDUIT          814.3    3.8762    0.0100
  AB-RCP-1448      JCT-404          JCT-405          CONDUIT          897.2    2.8359    0.0100
  AB-RCP-1459      AB-I-6033        AB-I-7059        CONDUIT          432.4    3.7513    0.0100
  AB-RCP-1481      JCT-405          AB-I-7037        CONDUIT          492.0    3.0851    0.0100
  AB-RCP-1482      JCT-406          AB-I-6028        CONDUIT          343.1    3.9792    0.0100
  AB-RCP-1483      JCT-407          JCT-405          CONDUIT          203.0    0.8711    0.0100
  AB-RCP-1488      AB-I-7059        AB-I-6038        CONDUIT           41.6    2.6809    0.0100
  AB-RCP-1490      AB-I-6028        AB-I-7034        CONDUIT          418.4    3.1197    0.0100
  AB-RCP-1491      AB-I-7034        JCT-409          CONDUIT           49.5    2.8368    0.0100
  AB-RCP-1494      AB-I-7037        JCT-409          CONDUIT           58.4    2.2913    0.0100
  AB-RCP-1495      AB-I-6040        AB-I-6039        CONDUIT           48.2    0.9995    0.0100
  AB-RCP-1496      AB-I-6039        AB-I-6042        CONDUIT           54.0    2.6478    0.0100
  AB-RCP-1497      AB-I-6044        AB-I-6041        CONDUIT          245.5    0.7950    0.0100
  AB-RCP-1498      AB-I-6041        JCT-410          CONDUIT          151.3    2.4199    0.0100
  AB-RCP-1499      AB-I-6043        AB-I-6042        CONDUIT           46.5    0.8803    0.0100
  AB-RCP-1500      AB-I-6042        AB-I-6044        CONDUIT          107.6    1.8287    0.0100
  AB-RCP-1515      JCT-409          AB-I-7038        CONDUIT           27.3    2.7768    0.0100
  AB-RCP-2274      AB-I-6004        AB-I-6005        CONDUIT           51.1    4.2540    0.0100
  AB-RCP-2719      AB-I-7123        JCT-413          CONDUIT           23.3    1.7524    0.0100
  AB-RCP-2720      AB-I-7124        JCT-413          CONDUIT          166.2    1.1274    0.0100
  AB-VC-1485       AB-I-6038        AB-I-6036        CONDUIT          221.6    0.2234    0.0100
  AB-VC-3175       AB-I-6036        JCT-407          CONDUIT          149.8    0.1393    0.0100
  AR-HD-IN-PIPE    AB-I-7038        AR-HD-IN         CONDUIT           35.2    1.6892    0.0100
  AR-MH-01-PIPE    JCT-413          AR-MH-01         CONDUIT          339.3    0.4389    0.0100
  BG-BG-1046       JCT-131          JCT-132          CONDUIT           42.6    2.5422    0.0100
  BG-BG-1445       BG-M-1049        BG-C-1050        CONDUIT          294.8    3.4963    0.0100
  BG-BG-1447       BG-C-1050        BG-I-5753        CONDUIT          193.1    2.8396    0.0100
  BG-BG-1786       BG-I-5783        BG-C-1706        CONDUIT           56.9    2.6441    0.0100
  BG-BG-1793       BG-C-1706        BG-I-7508        CONDUIT          251.5    2.1394    0.0100
  BG-BG-1816       BG-I-5818        BG-M-1707        CONDUIT           61.3    0.8985    0.0100
  BG-BG-2449       BG-C-1708        BG-I-5783        CONDUIT          325.5    3.3698    0.0100
  BG-BG-2450       BG-I-5753        BG-C-1708        CONDUIT           57.6    1.8367    0.0100
  BG-BG-2539       BG-C-1715        BG-C-1714        CONDUIT          491.6    8.6121    0.0100
  BG-BG-2682       BG-C-1724        BG-I-5579        CONDUIT          101.9    3.6243    0.0100
  BG-C-1732        JCT-202          JCT-203          CONDUIT          256.3    3.1230    0.0100
  BG-C-1734        JCT-203          JCT-204          CONDUIT          600.8    0.0258    0.0100
  BG-C-2667        JCT-104          JCT-105          CONDUIT          377.1    6.5043    0.0100
  BG-C-2668        JCT-105          JCT-106          CONDUIT           38.7    9.0188    0.0100
  BG-C-2671        JCT-106          BG-M-1719        CONDUIT          230.1   15.1746    0.0100
  BG-CH-C1-PIPE    SB-I-7058        BG-CH-C1         CONDUIT         1039.7    3.4090    0.0100
  BG-CLV-01-PIPE   JCT-205          BG-CLV-01        CONDUIT          121.9    1.5154    0.0100
  BG-G-1010        BG-I-7523        JCT-119          CONDUIT           24.4    6.9009    0.0100
  BG-G-1011        JCT-119          BG-I-5512        CONDUIT           59.1    5.4017    0.0100
  BG-G-1019        JCT-115          BG-I-7523        CONDUIT          231.5    7.6040    0.0100
  BG-G-2420        BG-I-7547        BG-I-5613        CONDUIT          117.4    6.0927    0.0100
  BG-G-2421        BG-I-5613        BG-I-7538        CONDUIT           64.4    3.1144    0.0100
  BG-G-2428        BG-I-7548        BG-I-7547        CONDUIT           95.8    5.0750    0.0100
  BG-G-2429        JCT-111          BG-I-7548        CONDUIT           53.3    8.7426    0.0100
  BG-G-2433        BG-M-1032        JCT-111          CONDUIT           62.4    4.9076    0.0100
  BG-G-2463        BG-C-1710        BG-I-7519        CONDUIT          336.9    8.1019    0.0100
  BG-G-2467        BG-C-1709        JCT-131          CONDUIT          384.3    3.6387    0.0100
  BG-G-2468        BG-C-1711        BG-C-1710        CONDUIT          389.4    8.0062    0.0100
  BG-G-2500        BG-I-7542        BG-I-5621        CONDUIT          133.0    5.5458    0.0100
  BG-G-2502        BG-I-5621        BG-I-5625        CONDUIT           53.1    2.1699    0.0100
  BG-G-2505        BG-I-5625        BG-C-1712        CONDUIT          131.9    6.7228    0.0100
  BG-G-2514        BG-I-7530        BG-I-7528        CONDUIT           51.1    2.1091    0.0100
  BG-G-2518        BG-C-1712        BG-I-7530        CONDUIT          187.8    1.0223    0.0100
  BG-G-2520        BG-I-7538        BG-I-7542        CONDUIT          106.0    6.1810    0.0100
  BG-G-2533        BG-I-7552        BG-C-1713        CONDUIT           36.2    0.5563    0.0100
  BG-G-2534        BG-C-1713        BG-I-5595        CONDUIT          121.0    7.2147    0.0100
  BG-G-2544        BG-C-1714        BG-I-7552        CONDUIT           79.2    0.7438    0.0100
  BG-G-2966        BG-I-7519        BG-C-1709        CONDUIT           57.9    6.3773    0.0100
  BG-HD-IN-PIPE    BG-C-1703        BG-HD-IN         CONDUIT          114.7    5.7800    0.0100
  BG-MH-B1-PIPE    BG-I-6280        BG-MH-B1         CONDUIT          199.4    1.8135    0.0100
  BG-PVC-1012      JCT-122          JCT-123          CONDUIT           55.8    4.9007    0.0100
  BG-PVC-1013      JCT-121          JCT-122          CONDUIT           69.6    4.2207    0.0100
  BG-PVC-1017      JCT-120          JCT-121          CONDUIT           72.0    4.7014    0.0100
  BG-PVC-1489      BG-I-7035        BG-I-5828        CONDUIT          110.0    1.4446    0.0100
  BG-PVC-1739      BG-MH-B1         BG-I-6275        CONDUIT          495.1    2.3214    0.0100
  BG-PVC-1770      BG-I-5644        BG-I-5646        CONDUIT           43.2    4.5511    0.0100
  BG-PVC-1776      BG-I-5553        BG-I-5644        CONDUIT          388.7    3.1722    0.0100
  BG-PVC-1972      BG-I-5623        BG-I-5626        CONDUIT           66.5    5.1655    0.0100
  BG-PVC-2350      BG-I-5828        BG-I-5831        CONDUIT           28.3    1.4402    0.0100
  BG-PVC-2403      BG-I-5594        BG-I-5602        CONDUIT          233.1   11.2794    0.0100
  BG-PVC-2498      BG-I-5619        BG-I-7541        CONDUIT          320.8    2.2533    0.0100
  BG-PVC-2503      BG-I-7541        BG-I-5625        CONDUIT           20.2    3.9199    0.0100
  BG-PVC-2506      BG-I-5628        BG-I-7531        CONDUIT          316.0    0.1182    0.0100
  BG-PVC-2510      BG-I-5632        JCT-114          CONDUIT           65.7    3.3574    0.0100
  BG-PVC-2511      BG-I-0028        BG-I-5632        CONDUIT          119.9    4.0540    0.0100
  BG-PVC-2512      BG-I-7527        BG-I-5637        CONDUIT           19.1    0.3509    0.0100
  BG-PVC-2513      BG-I-5637        BG-I-7529        CONDUIT          159.3    0.6145    0.0100
  BG-PVC-2523      BG-I-7544        BG-I-7543        CONDUIT           31.5   13.3305    0.0100
  BG-PVC-2524      BG-I-7545        BG-I-7544        CONDUIT           40.4    8.7813    0.0100
  BG-PVC-2545      BG-I-5905        BG-I-0030        CONDUIT           27.4    3.7566    0.0100
  BG-PVC-2560      BG-C-1723        BG-M-17171       CONDUIT           77.1    3.0617    0.0100
  BG-PVC-2583      BG-I-5804        BG-I-5817        CONDUIT          200.6    6.7426    0.0100
  BG-PVC-2616      BG-I-5679        BG-I-5684        CONDUIT           58.7    1.7453    0.0100
  BG-PVC-2617      BG-I-5680        BG-I-5679        CONDUIT          105.0    1.1809    0.0100
  BG-PVC-2641      BG-I-5683        BG-I-5680        CONDUIT          159.8    2.3213    0.0100
  BG-PVC-2658      BG-I-7424        BG-I-7425        CONDUIT           11.0    4.7750    0.0100
  BG-PVC-2672      BG-M-1719        BG-C-1720        CONDUIT          135.3    7.2809    0.0100
  BG-PVC-2676      BG-C-1720        BG-M-1721        CONDUIT          167.3   10.1422    0.0100
  BG-PVC-2677      BG-M-1721        BG-C-1722        CONDUIT          188.3    6.0065    0.0100
  BG-PVC-2678      BG-C-1722        BG-C-1723        CONDUIT           77.5    0.0013    0.0100
  BG-RCP-1001      JCT-116          JCT-117          CONDUIT          289.2    6.1704    0.0100
  BG-RCP-1006      JCT-117          BG-I-5503        CONDUIT           50.7    0.9947    0.0100
  BG-RCP-1007      BG-I-5503        JCT-118          CONDUIT          270.3    0.5426    0.0100
  BG-RCP-1009      JCT-118          JCT-119          CONDUIT           59.5    0.6789    0.0100
  BG-RCP-1015      JCT-123          BG-I-5512        CONDUIT          282.5    1.7736    0.0100
  BG-RCP-1060      BG-I-5728        JCT-128          CONDUIT          122.6    3.8651    0.0100
  BG-RCP-1295      BG-I-5578        BG-I-5582        CONDUIT           31.4    2.3995    0.0100
  BG-RCP-1446      JCT-128          BG-I-5750        CONDUIT          449.7    3.8674    0.0100
  BG-RCP-1509      BG-I-5835        BG-I-7053        CONDUIT           12.0    1.9174    0.0100
  BG-RCP-1510      BG-I-5838        BG-I-5835        CONDUIT           43.1    1.9757    0.0100
  BG-RCP-1511      BG-I-5842        BG-I-5846        CONDUIT           58.5    0.2222    0.0100
  BG-RCP-1512      BG-I-7053        BG-I-5842        CONDUIT           95.5    0.2289    0.0100
  BG-RCP-1513      BG-I-5846        BG-I-5868        CONDUIT          232.7    0.2192    0.0100
  BG-RCP-1731      BG-I-6275        JCT-203          CONDUIT          122.9    5.2775    0.0100
  BG-RCP-1733      BG-C-1701        BG-C-1700        CONDUIT          242.6    2.3463    0.0100
  BG-RCP-1735      BG-C-1700        JCT-204          CONDUIT           36.2    2.3869    0.0100
  BG-RCP-1740      BG-I-7134        JCT-202          CONDUIT          135.2    3.8115    0.0100
  BG-RCP-1741      BG-C-1718        BG-C-1701        CONDUIT           57.6    1.8722    0.0100
  BG-RCP-1743      BG-I-7503        BG-C-0703        CONDUIT           49.5    0.9773    0.0100
  BG-RCP-1744      BG-I-5878        BG-I-5879        CONDUIT           55.5    1.5037    0.0100
  BG-RCP-1745      BG-I-5879        BG-I-6279        CONDUIT          239.8    0.7405    0.0100
  BG-RCP-1746      BG-I-5880        BG-I-6279        CONDUIT          114.2    1.6621    0.0100
  BG-RCP-1747      BG-I-6279        BG-I-6280        CONDUIT           55.3    1.9159    0.0100
  BG-RCP-1752      BG-I-5650        BG-I-5880        CONDUIT          122.5    1.3624    0.0100
  BG-RCP-1755      BG-I-5648        BG-I-5650        CONDUIT          268.6    3.3672    0.0100
  BG-RCP-1772      BG-I-5646        BG-I-5878        CONDUIT          380.6    2.8983    0.0100
  BG-RCP-1777      BG-I-5547        BG-I-5553        CONDUIT          241.8    0.3832    0.0100
  BG-RCP-1781      BG-I-5763        BG-I-7534        CONDUIT          190.6    4.8809    0.0100
  BG-RCP-1783      JCT-129          BG-I-5802        CONDUIT           57.7    2.4992    0.0100
  BG-RCP-1789      BG-I-5784        BG-I-5791        CONDUIT           28.9    2.7649    0.0100
  BG-RCP-1790      BG-I-5791        BG-I-5800        CONDUIT           20.2    4.1018    0.0100
  BG-RCP-1796      BG-I-5764        BG-I-5784        CONDUIT          341.3    4.4983    0.0100
  BG-RCP-1801      BG-I-5793        BG-I-5801        CONDUIT           20.2    3.7437    0.0100
  BG-RCP-1802      BG-I-7534        BG-I-5793        CONDUIT          179.7    4.5668    0.0100
  BG-RCP-1807      BG-I-5800        BG-I-5801        CONDUIT           58.6    0.4335    0.0100
  BG-RCP-1810      BG-I-5802        BG-I-5812        CONDUIT          164.4    2.5584    0.0100
  BG-RCP-1813      BG-I-7505        BG-I-5562        CONDUIT          278.9    3.5372    0.0100
  BG-RCP-1815      BG-I-7508        BG-I-5818        CONDUIT            4.0   12.4941    0.0100
  BG-RCP-1822      BG-I-5855        BG-I-5860        CONDUIT           43.5    3.9252    0.0100
  BG-RCP-1823      BG-I-5860        BG-I-5875        CONDUIT          158.4    2.5692    0.0100
  BG-RCP-1824      BG-I-5861        BG-I-5875        CONDUIT          167.7    2.4978    0.0100
  BG-RCP-1825      BG-I-5875        BG-I-7505        CONDUIT           12.4    3.7965    0.0100
  BG-RCP-1826      BG-I-5801        BG-I-5822        CONDUIT          308.5    1.9834    0.0100
  BG-RCP-1827      BG-I-5812        BG-I-5820        CONDUIT           67.7    0.0015    0.0100
  BG-RCP-1828      BG-I-5820        BG-I-5827        CONDUIT           97.6    9.4657    0.0100
  BG-RCP-1829      BG-I-5822        BG-I-5855        CONDUIT          252.7    5.4384    0.0100
  BG-RCP-1832      BG-I-5827        BG-I-5853        CONDUIT          207.6    2.8621    0.0100
  BG-RCP-1833      BG-I-5853        BG-I-5862        CONDUIT           53.1    2.3121    0.0100
  BG-RCP-1835      BG-I-5862        BG-I-5861        CONDUIT          111.5    0.8472    0.0100
  BG-RCP-1840      BG-I-5546        BG-I-5547        CONDUIT           57.8    0.0279    0.0100
  BG-RCP-1841      BG-M-1707        JCT-133          CONDUIT          179.7    4.2847    0.0100
  BG-RCP-1975      BG-I-5626        BG-I-5633        CONDUIT          224.8    6.1599    0.0100
  BG-RCP-1976      BG-I-5633        BG-I-5638        CONDUIT           72.8    4.2478    0.0100
  BG-RCP-1977      BG-I-7559        BG-I-5635        CONDUIT          108.0    6.8992    0.0100
  BG-RCP-1978      BG-I-5635        BG-I-5638        CONDUIT           96.1    3.5903    0.0100
  BG-RCP-1980      BG-I-5638        BG-I-7560        CONDUIT           27.3    2.2372    0.0100
  BG-RCP-1982      BG-I-7560        BG-I-7527        CONDUIT          223.1    1.3512    0.0100
  BG-RCP-2237      BG-I-9983        BG-I-9985        CONDUIT           40.6   12.5581    0.0100
  BG-RCP-2240      BG-I-7428        BG-M-7721        CONDUIT          163.8    5.7119    0.0100
  BG-RCP-2262      BG-I-9974        BG-M-7721        CONDUIT          318.4   10.9610    0.0100
  BG-RCP-2328      BG-I-5541        BG-I-5548        CONDUIT          248.2    0.5422    0.0100
  BG-RCP-2329      BG-I-7057        BG-I-5541        CONDUIT           50.2    0.1993    0.0100
  BG-RCP-2332      BG-I-5548        BG-I-5550        CONDUIT           55.9    1.0664    0.0100
  BG-RCP-2334      BG-I-5873        BG-I-5550        CONDUIT          327.0    3.1344    0.0100
  BG-RCP-2335      BG-I-5550        SB-I-7058        CONDUIT           87.6    0.2353    0.0100
  BG-RCP-2339      BG-I-5649        BG-I-7052        CONDUIT           66.8    1.2990    0.0100
  BG-RCP-2340      BG-I-7051        BG-I-5649        CONDUIT          245.5    1.0632    0.0100
  BG-RCP-2345      BG-I-5813        BG-I-5854        CONDUIT          422.0    3.7953    0.0100
  BG-RCP-2348      BG-I-5819        BG-I-5830        CONDUIT          239.5    3.1469    0.0100
  BG-RCP-2351      BG-I-5831        BG-I-5837        CONDUIT           75.5    1.3272    0.0100
  BG-RCP-2355      BG-I-5837        BG-I-5840        CONDUIT           30.3    0.2880    0.0100
  BG-RCP-2356      BG-I-5840        BG-I-7057        CONDUIT          383.7    3.4341    0.0100
  BG-RCP-2358      BG-I-5854        JCT-300          CONDUIT           69.1    2.1380    0.0100
  BG-RCP-2361      JCT-300          BG-I-5873        CONDUIT           51.7    3.2828    0.0100
  BG-RCP-2364      BG-I-5868        BG-I-5871        CONDUIT           56.5    0.2299    0.0100
  BG-RCP-2365      BG-I-5871        BG-I-7057        CONDUIT          235.1    0.2212    0.0100
  BG-RCP-2367      BG-I-7052        BG-I-5878        CONDUIT          226.6    1.2138    0.0100
  BG-RCP-2372      BG-I-5874        BG-I-7043        CONDUIT          253.4    1.9515    0.0100
  BG-RCP-2374      BG-I-7043        BG-I-7044        CONDUIT           49.2    1.7426    0.0100
  BG-RCP-2375      BG-I-7044        BG-I-7050        CONDUIT          383.0    2.8502    0.0100
  BG-RCP-2376      BG-I-7050        BG-I-7051        CONDUIT           55.8    0.9062    0.0100
  BG-RCP-2377      JCT-01           BG-I-7050        CONDUIT          771.6    1.1553    0.0100
  BG-RCP-2379      BG-I-5830        BG-I-5834        CONDUIT           56.0    2.1888    0.0100
  BG-RCP-2380      BG-I-5542        BG-I-5870        CONDUIT          317.0    0.1842    0.0100
  BG-RCP-2382      BG-I-5834        BG-I-5848        CONDUIT          241.2    3.3717    0.0100
  BG-RCP-2383      BG-I-5844        BG-I-5848        CONDUIT           39.5    2.2702    0.0100
  BG-RCP-2385      BG-I-5848        BG-I-5849        CONDUIT           38.5    0.7863    0.0100
  BG-RCP-2386      BG-I-5849        BG-I-5863        CONDUIT          129.7    0.6931    0.0100
  BG-RCP-2390      BG-I-5863        BG-I-5874        CONDUIT          144.8    1.6606    0.0100
  BG-RCP-2391      BG-I-5870        BG-I-5874        CONDUIT          135.1    1.7186    0.0100
  BG-RCP-2411      BG-I-5602        BG-I-5608        CONDUIT           41.2    6.5359    0.0100
  BG-RCP-2412      BG-I-5604        JCT-111          CONDUIT           62.4    3.7418    0.0100
  BG-RCP-2413      BG-I-5605        BG-I-5604        CONDUIT           42.1    2.3409    0.0100
  BG-RCP-2414      BG-I-5606        BG-I-5605        CONDUIT           11.5    5.3277    0.0100
  BG-RCP-2415      BG-I-7557        BG-I-5606        CONDUIT          332.9    7.5570    0.0100
  BG-RCP-2416      BG-I-5608        BG-I-7558        CONDUIT           54.1    6.0960    0.0100
  BG-RCP-2417      JCT-112          BG-I-7538        CONDUIT          367.8    3.5569    0.0100
  BG-RCP-2423      BG-I-5614        BG-I-5617        CONDUIT           54.8    4.9016    0.0100
  BG-RCP-2426      BG-I-5617        BG-I-5623        CONDUIT          232.2    8.6254    0.0100
  BG-RCP-2432      BG-I-7558        BG-I-7557        CONDUIT            9.2    3.6660    0.0100
  BG-RCP-2434      BG-I-5742        BG-I-5745        CONDUIT          167.6    0.9757    0.0100
  BG-RCP-2435      BG-I-5745        BG-I-5764        CONDUIT           92.3    3.8942    0.0100
  BG-RCP-2439      BG-I-5750        BG-I-5754        CONDUIT           22.8    0.2374    0.0100
  BG-RCP-2442      BG-I-5754        BG-I-5763        CONDUIT           59.7    2.7363    0.0100
  BG-RCP-2469      BG-I-5653        BG-I-5672        CONDUIT          371.9    5.8440    0.0100
  BG-RCP-2478      BG-I-5672        JCT-125          CONDUIT           38.0    5.5794    0.0100
  BG-RCP-2483      BG-I-5512        BG-C-1711        CONDUIT          408.6    4.8223    0.0100
  BG-RCP-2484      BG-I-5519        BG-I-5653        CONDUIT          378.2    6.3345    0.0100
  BG-RCP-2496      BG-I-5531        BG-I-5530        CONDUIT           91.1    3.0166    0.0100
  BG-RCP-2497      BG-I-7535        JCT-116          CONDUIT           36.1    8.7772    0.0100
  BG-RCP-2515      BG-I-7529        BG-I-7528        CONDUIT           36.8    0.5641    0.0100
  BG-RCP-2516      BG-I-7531        BG-I-7528        CONDUIT          157.0    1.4428    0.0100
  BG-RCP-2517      BG-I-7528        JCT-115          CONDUIT          297.4    6.9085    0.0100
  BG-RCP-2519      BG-I-7536        BG-I-7535        CONDUIT          153.4    8.2559    0.0100
  BG-RCP-2522      BG-I-7543        BG-I-7542        CONDUIT          136.3    0.3899    0.0100
  BG-RCP-2528      BG-I-5583        BG-I-5592        CONDUIT          162.2    4.3884    0.0100
  BG-RCP-2532      BG-I-5592        BG-I-5594        CONDUIT           35.2    3.9881    0.0100
  BG-RCP-2536      JCT-110          BG-C-1713        CONDUIT          401.4    3.2123    0.0100
  BG-RCP-2540      BG-I-5585        BG-C-1714        CONDUIT           70.9    4.0333    0.0100
  BG-RCP-2541      BG-I-5582        BG-I-5583        CONDUIT          426.9    8.1965    0.0100
  BG-RCP-2543      JCT-109          BG-I-5585        CONDUIT          418.4    8.4821    0.0100
  BG-RCP-2546      BG-I-5576        BG-I-5579        CONDUIT          145.0    3.3120    0.0100
  BG-RCP-2547      BG-I-5577        BG-I-5579        CONDUIT          131.4    5.4314    0.0100
  BG-RCP-2548      JCT-108          BG-I-5577        CONDUIT           74.5   25.8329    0.0100
  BG-RCP-2550      BG-I-0030        BG-C-1715        CONDUIT          306.2    6.9372    0.0100
  BG-RCP-2551      BG-I-5581        BG-C-1715        CONDUIT           15.6   12.0989    0.0100
  BG-RCP-2556      BG-I-7555        BG-I-5571        CONDUIT          138.2    6.7124    0.0100
  BG-RCP-2557      BG-I-5571        JCT-107          CONDUIT          115.2    9.8714    0.0100
  BG-RCP-2561      BG-I-5562        BG-I-6275        CONDUIT         1243.6    3.3546    0.0100
  BG-RCP-2563      BG-C-0703        BG-C-1718        CONDUIT           76.1    3.3178    0.0100
  BG-RCP-2571      BG-I-5785        BG-I-5803        CONDUIT          105.7    2.8163    0.0100
  BG-RCP-2573      BG-I-5803        BG-I-5807        CONDUIT          114.8    2.0880    0.0100
  BG-RCP-2584      BG-I-5807        BG-I-5809        CONDUIT          112.0    2.0072    0.0100
  BG-RCP-2585      BG-I-5811        BG-I-5809        CONDUIT           38.6    0.2545    0.0100
  BG-RCP-2586      BG-I-5809        BG-I-5844        CONDUIT          364.8    3.0664    0.0100
  BG-RCP-2587      BG-I-5817        BG-I-5811        CONDUIT           92.1    7.6645    0.0100
  BG-RCP-2588      BG-I-5731        BG-I-5733        CONDUIT           51.6    1.9980    0.0100
  BG-RCP-2595      BG-I-5738        BG-I-5766        CONDUIT          401.0    5.7043    0.0100
  BG-RCP-2597      BG-I-5743        BG-I-5751        CONDUIT           67.5    3.4739    0.0100
  BG-RCP-2602      BG-I-5766        BG-I-5768        CONDUIT           53.5    0.0729    0.0100
  BG-RCP-2605      BG-I-5768        BG-I-5785        CONDUIT          310.2    3.2259    0.0100
  BG-RCP-2606      BG-I-5772        BG-I-5775        CONDUIT           48.8    3.7264    0.0100
  BG-RCP-2609      BG-I-5775        BG-I-5804        CONDUIT          219.2    2.1726    0.0100
  BG-RCP-2612      JCT-125          JCT-126          CONDUIT           34.4    4.1909    0.0100
  BG-RCP-2613      JCT-126          JCT-127          CONDUIT          439.5    5.4259    0.0100
  BG-RCP-2614      JCT-127          JCT-135          CONDUIT           62.0    1.2651    0.0100
  BG-RCP-2615      BG-I-5740        BG-I-5742        CONDUIT           47.1    2.0727    0.0100
  BG-RCP-2618      BG-I-5684        BG-I-5694        CONDUIT          233.1    5.0559    0.0100
  BG-RCP-2629      BG-I-5706        BG-I-5729        CONDUIT          145.2    4.6903    0.0100
  BG-RCP-2630      BG-I-5711        BG-I-5721        CONDUIT           59.2    0.7671    0.0100
  BG-RCP-2633      BG-I-5721        BG-I-5736        CONDUIT          403.6    4.3525    0.0100
  BG-RCP-2635      BG-I-5729        BG-I-5731        CONDUIT          131.0    3.3028    0.0100
  BG-RCP-2639      BG-I-5736        BG-I-5738        CONDUIT           39.5    3.0404    0.0100
  BG-RCP-2640      BG-I-5674        BG-I-5683        CONDUIT          131.6    3.5187    0.0100
  BG-RCP-2644      BG-I-7426        JCT-302          CONDUIT          222.7    5.2014    0.0100
  BG-RCP-2645      JCT-302          BG-I-5684        CONDUIT           78.5    5.2478    0.0100
  BG-RCP-2646      BG-I-7064        BG-I-5515        CONDUIT          209.5    6.8843    0.0100
  BG-RCP-2647      BG-I-5515        BG-I-5533        CONDUIT          119.3    5.1863    0.0100
  BG-RCP-2650      BG-I-5524        BG-I-5533        CONDUIT           69.3    3.9807    0.0100
  BG-RCP-2651      BG-I-5525        BG-I-5524        CONDUIT          142.4    2.3711    0.0100
  BG-RCP-2652      BG-I-5530        BG-I-5525        CONDUIT          236.6    2.2343    0.0100
  BG-RCP-2653      BG-I-5533        BG-I-5651        CONDUIT          258.8    6.2644    0.0100
  BG-RCP-2654      BG-I-5651        BG-I-5662        CONDUIT          114.1    5.5624    0.0100
  BG-RCP-2657      BG-I-5662        BG-I-7424        CONDUIT           21.3    5.0533    0.0100
  BG-RCP-2659      BG-I-7425        BG-I-7426        CONDUIT           21.7    4.8599    0.0100
  BG-RCP-2661      BG-I-9985        BG-I-9978        CONDUIT          576.5   12.0764    0.0100
  BG-RCP-2662      BG-I-9978        BG-I-7070        CONDUIT           93.1    9.7822    0.0100
  BG-RCP-2664      BG-I-7070        JCT-103          CONDUIT           68.8    6.3154    0.0100
  BG-RCP-2665      JCT-103          BG-I-7071        CONDUIT          224.8    8.3187    0.0100
  BG-RCP-2666      BG-I-7071        BG-I-7072        CONDUIT           14.2    2.7502    0.0100
  BG-RCP-2670      BG-M-7721        BG-I-9977        CONDUIT          409.9    8.0457    0.0100
  BG-RCP-2680      JCT-107          BG-I-5576        CONDUIT          135.2   10.8202    0.0100
  BG-RCP-2733      BG-I-5506        BG-I-7064        CONDUIT           86.1    6.3130    0.0100
  BG-RCP-2736      BG-I-5508        BG-I-5506        CONDUIT           46.1    0.2947    0.0100
  BG-RCP-3158      BG-I-6304        JCT-414          CONDUIT          852.3    1.0226    0.0100
  BG-RCP-3174      BG-HD-IN         BG-I-7503        CONDUIT          255.9    2.7415    0.0100
  BG-RCP-3248      BG-I-9977        JCT-102          CONDUIT          292.5    4.5232    0.0100
  BG-RCPG-2404     BG-I-5595        BG-M-1032        CONDUIT          129.7    7.3372    0.0100
  BG-S-2234        BG-I-9967        BG-I-7428        CONDUIT           36.1    3.3764    0.0100
  BG-S-2235        JCT-101          BG-I-9967        CONDUIT          126.1   13.5099    0.0100
  BG-S-2263        BG-I-9982        BG-I-9974        CONDUIT          149.0    6.7278    0.0100
  BG-S-2264        JCT-100          BG-I-9982        CONDUIT          171.0    7.0338    0.0100
  BG-S-2669        BG-I-7072        JCT-104          CONDUIT          198.7   22.0437    0.0100
  BG-VC-1753       BG-C-1704        BG-C-1703        CONDUIT          491.9    2.8666    0.0100
  BG-VC-1775       JCT-134          BG-C-1704        CONDUIT          645.4    3.2077    0.0100
  BG-VC-2343       BG-I-5810        BG-I-5813        CONDUIT            7.3    2.9280    0.0100
  BG-VC-2549       BG-I-5579        BG-C-1715        CONDUIT           23.1    1.8716    0.0100
  BG-VC-2558       BG-M-17171       BG-C-1724        CONDUIT          230.6   13.4536    0.0100
  BG-VC-2568       BG-I-5769        BG-I-5774        CONDUIT          171.7    4.3235    0.0100
  BG-VC-2569       BG-I-5774        BG-I-5778        CONDUIT           58.1    3.4091    0.0100
  BG-VC-2580       BG-I-5778        BG-I-5810        CONDUIT          352.4    3.7416    0.0100
  BG-VC-2591       BG-I-5733        BG-I-5743        CONDUIT          386.9    1.8782    0.0100
  BG-VC-2600       BG-I-5751        BG-I-5769        CONDUIT          180.2    2.8412    0.0100
  BG-VC-2619       BG-I-5694        BG-I-5700        CONDUIT           94.9    4.9269    0.0100
  BG-VC-2623       BG-I-5700        BG-I-5706        CONDUIT          109.0    4.2019    0.0100
  BG-VC-3173       JCT-133          JCT-134          CONDUIT          112.2   13.0262    0.0100
  BG-W-2663        JCT-102          JCT-103          CONDUIT          305.2   10.1900    0.0100
  CDT-100          JCT-132          BG-M-1049        CONDUIT          139.2    3.2612    0.0100
  CDT-101          JCT-135          BG-I-5728        CONDUIT           39.2    3.2992    0.0100
  CDT-200          BG-CLV-01        JCT-206          CONDUIT          222.6    2.1133    0.0100
  CDT-201          JCT-204          JCT-205          CONDUIT          268.7    1.4883    0.0100
  CDT-400          JCT-419          STOR-SB1         CONDUIT          217.3    0.2521    0.0100
  CDT-401          STOR-SB1         JCT-421          CONDUIT          182.5    0.5479    0.0350
  CDT-402          JCT-411          STOR-SB2         CONDUIT          135.9    0.4518    0.0100
  CDT-403          JCT-417          STOR-SB2         CONDUIT          192.5    0.3251    0.0100
  CDT-404          STOR-SB2         JCT-406          CONDUIT          112.3    2.2734    0.0100
  CDT-41           JCT-654          JCT-611          CONDUIT         1341.3    0.0031    0.0100
  CDT-43           JCT-656          SB-I-6473        CONDUIT          447.9    1.2589    0.0100
  CDT-45           JCT-410          BG-I-6304        CONDUIT          665.6    3.9808    0.0100
  CDT-47           WA-HD-IN         JCT-507          CONDUIT           67.4    0.8445    0.0100
  CDT-500          WA-I-6058        JCT-501          CONDUIT           25.1    6.1874    0.0100
  CDT-600          JCT-605          JCT-601          CONDUIT          279.6    0.2825    0.0100
  CDT-602          JCT-607          SB-I-6319        CONDUIT          735.9    0.4077    0.0100
  CDT-604          JCT-632          JCT-629          CONDUIT          234.4    0.2218    0.0100
  CDT-606          SB-I-6478        SB-I-6455        CONDUIT          312.4    0.0449    0.0100
  CDT-610          TX-HD-IN         JCT-HDOUTLET     CONDUIT          374.4    0.7745    0.0100
  CDT-ARHDDOWN     AR-HD-IN         JCT-410          CONDUIT          153.3    3.0277    0.0100
  MS-RCP-2043      JCT-206          JCT-207          CONDUIT          181.2    0.3630    0.0100
  SB-PVC-1418      SB-I-6317        JCT-603          CONDUIT           11.2    0.8965    0.0100
  SB-RCP-1233      JCT-601          JCT-600          CONDUIT          234.6    0.2771    0.0100
  SB-RCP-1235      JCT-600          JCT-602          CONDUIT          366.1    0.2814    0.0100
  SB-RCP-1420      JCT-603          SB-I-7101        CONDUIT           38.2    0.2615    0.0100
  SB-RCP-1422      JCT-620          JCT-605          CONDUIT           63.4    0.1735    0.0100
  SB-RCP-1518      SB-I-6333        JCT-606          CONDUIT          582.5    1.4211    0.0100
  SB-RCP-1519      JCT-651          JCT-607          CONDUIT           50.2    0.8709    0.0100
  SB-RCP-1520      JCT-649          SB-I-6333        CONDUIT           48.3    1.9505    0.0100
[...]
  BG-PVC-2403              5.985e+04         5.803
  BG-PVC-2498                  0.000         0.000
  BG-PVC-2503                  0.000         0.000
  BG-PVC-2506                  0.000         0.000
  BG-PVC-2510                  0.000         0.000
  BG-PVC-2511                  0.000         0.000
  BG-PVC-2512              1.433e+05        14.988
  BG-PVC-2513              1.457e+05        14.990
  BG-PVC-2523                  0.000         0.000
  BG-PVC-2524                  0.000         0.000
  BG-PVC-2545                  0.000         0.000
  BG-PVC-2560              1.257e+06       152.545
  BG-PVC-2583               9988.801        14.604
  BG-PVC-2616                  0.000         0.000
  BG-PVC-2617                  0.000         0.000
  BG-PVC-2641                  0.000         0.000
  BG-PVC-2658                  0.000         0.000
  BG-PVC-2672              1.217e+06       140.673
  BG-PVC-2676              1.223e+06       140.751
  BG-PVC-2677              1.225e+06       140.712
  BG-PVC-2678              1.102e+06       136.850
  BG-RCP-1001                  0.000         0.000
  BG-RCP-1006                  0.000         0.000
  BG-RCP-1007                  0.000         0.000
  BG-RCP-1009                  0.000         0.000
  BG-RCP-1015              4.937e+04         5.127
  BG-RCP-1060              1.295e+05        12.639
  BG-RCP-1295                  0.000         0.000
  BG-RCP-1446              1.320e+05        12.651
  BG-RCP-1509                  0.000         0.000
  BG-RCP-1510                  0.000         0.000
  BG-RCP-1511                  0.000         0.000
  BG-RCP-1512                  0.000         0.000
  BG-RCP-1513                  0.000         0.000
  BG-RCP-1731              5.724e+05       181.215
  BG-RCP-1733              4.548e+06       387.397
  BG-RCP-1735              4.563e+06       388.000
  BG-RCP-1740                  0.000         0.000
  BG-RCP-1741              4.526e+06       387.024
  BG-RCP-1743              4.412e+06       369.663
  BG-RCP-1744              8.218e+04       125.816
  BG-RCP-1745              7.949e+04       122.718
  BG-RCP-1746                  0.000         0.000
  BG-RCP-1747              7.969e+04       122.834
  BG-RCP-1752                  0.000         0.000
  BG-RCP-1755                  0.000         0.000
  BG-RCP-1772                  0.000         0.000
  BG-RCP-1777                  0.000         0.000
  BG-RCP-1781              2.030e+05        20.253
  BG-RCP-1783                  0.000         0.000
  BG-RCP-1789                  0.000         0.000
  BG-RCP-1790                  0.000         0.000
  BG-RCP-1796                  0.000         0.000
  BG-RCP-1801              2.105e+05        20.320
  BG-RCP-1802              2.069e+05        20.271
  BG-RCP-1807                  0.000         0.000
  BG-RCP-1810                  0.000         0.000
  BG-RCP-1813              3.699e+05        35.145
  BG-RCP-1815              3.893e+06       335.468
  BG-RCP-1822              2.984e+05        29.047
  BG-RCP-1823              3.035e+05        29.099
  BG-RCP-1824                  0.000         0.000
  BG-RCP-1825              3.083e+05        29.187
  BG-RCP-1826              2.872e+05        28.969
  BG-RCP-1827                  0.000         0.000
  BG-RCP-1828                  0.000         0.000
  BG-RCP-1829              2.929e+05        28.994
  BG-RCP-1832                  0.000         0.000
  BG-RCP-1833                  0.000         0.000
  BG-RCP-1835                  0.000         0.000
  BG-RCP-1840                  0.000         0.000
  BG-RCP-1841              3.975e+06       336.618
  BG-RCP-1975              1.026e+05        11.313
  BG-RCP-1976              1.050e+05        11.335
  BG-RCP-1977                  0.000         0.000
  BG-RCP-1978                  0.000         0.000
  BG-RCP-1980              1.070e+05        11.368
  BG-RCP-1982              1.442e+05        15.093
  BG-RCP-2237                  0.000         0.000
  BG-RCP-2240                  0.000         0.000
  BG-RCP-2262                  0.000         0.000
  BG-RCP-2328                  0.000         0.000
  BG-RCP-2329                  0.000         0.000
  BG-RCP-2332                  0.000         0.000
  BG-RCP-2334                  0.000         0.000
  BG-RCP-2335                  0.000         0.000
  BG-RCP-2339              6.624e+04        99.197
  BG-RCP-2340              6.597e+04        99.017
  BG-RCP-2345                  0.000         0.000
  BG-RCP-2348                  0.000         0.000
  BG-RCP-2351                  0.000         0.000
  BG-RCP-2355                  0.000         0.000
  BG-RCP-2356                  0.000         0.000
  BG-RCP-2358                  0.000         0.000
  BG-RCP-2361                  0.000         0.000
  BG-RCP-2364                  0.000         0.000
  BG-RCP-2365                  0.000         0.000
  BG-RCP-2367              6.517e+04        98.339
  BG-RCP-2372              4.314e+04        63.339
  BG-RCP-2374              4.334e+04        63.486
  BG-RCP-2375              4.352e+04        63.587
  BG-RCP-2376              6.579e+04        98.976
  BG-RCP-2377                  0.000         0.000
  BG-RCP-2379                  0.000         0.000
  BG-RCP-2380               7521.813        10.948
  BG-RCP-2382                  0.000         0.000
  BG-RCP-2383              2.859e+04        41.696
  BG-RCP-2385              3.526e+04        52.238
  BG-RCP-2386              3.535e+04        52.274
  BG-RCP-2390              3.548e+04        52.352
  BG-RCP-2391               7517.874        10.925
  BG-RCP-2411              6.177e+04         5.811
  BG-RCP-2412              1.640e+05        15.992
  BG-RCP-2413              1.051e+05         9.571
  BG-RCP-2414              1.058e+05         9.587
  BG-RCP-2415              1.043e+05         9.548
  BG-RCP-2416              1.048e+05         9.666
  BG-RCP-2417                  0.000         0.000
  BG-RCP-2423                  0.000         0.000
  BG-RCP-2426                  0.000         0.000
  BG-RCP-2432              1.023e+05         9.523
  BG-RCP-2434                  0.000         0.000
  BG-RCP-2435                  0.000         0.000
  BG-RCP-2439              1.289e+05        12.538
  BG-RCP-2442              1.989e+05        20.255
  BG-RCP-2469              5.786e+04         6.019
  BG-RCP-2478              5.979e+04         6.021
  BG-RCP-2483              2.693e+06       257.852
  BG-RCP-2484                  0.000         0.000
  BG-RCP-2496                  0.000         0.000
  BG-RCP-2497                  0.000         0.000
  BG-RCP-2515              1.980e+05        20.616
  BG-RCP-2516                  0.000         0.000
  BG-RCP-2517              2.394e+06       237.544
  BG-RCP-2519                  0.000         0.000
  BG-RCP-2522                  0.000         0.000
  BG-RCP-2528                  0.000         0.000
  BG-RCP-2532                  0.000         0.000
  BG-RCP-2536                  0.000         0.000
  BG-RCP-2540              8.509e+04         8.865
  BG-RCP-2541                  0.000         0.000
  BG-RCP-2543                  0.000         0.000
  BG-RCP-2546              6.619e+04         6.694
  BG-RCP-2547                  0.000         0.000
  BG-RCP-2548                  0.000         0.000
  BG-RCP-2550                  0.000         0.000
  BG-RCP-2551                  0.000         0.000
  BG-RCP-2556                  0.000         0.000
  BG-RCP-2557                  0.000         0.000
  BG-RCP-2561              4.635e+05        45.616
  BG-RCP-2563              4.452e+06       370.080
  BG-RCP-2571               6980.704        10.050
  BG-RCP-2573              1.100e+04        15.484
  BG-RCP-2584              1.101e+04        15.478
  BG-RCP-2585              1.736e+04        26.096
  BG-RCP-2586              2.845e+04        41.592
  BG-RCP-2587              1.849e+04        27.008
  BG-RCP-2588                  0.000         0.000
  BG-RCP-2595               7759.166        10.735
  BG-RCP-2597                  0.000         0.000
  BG-RCP-2602               7065.537        10.158
  BG-RCP-2605               7018.432        10.094
  BG-RCP-2606              1.002e+04        14.658
  BG-RCP-2609               9947.683        14.588
  BG-RCP-2612              6.161e+04         6.037
  BG-RCP-2613              6.332e+04         6.055
  BG-RCP-2614              1.237e+05        12.618
  BG-RCP-2615                  0.000         0.000
  BG-RCP-2618                  0.000         0.000
  BG-RCP-2629                  0.000         0.000
  BG-RCP-2630               5206.799         7.370
  BG-RCP-2633               5206.843         7.354
  BG-RCP-2635                  0.000         0.000
  BG-RCP-2639               7748.533        10.747
  BG-RCP-2640                  0.000         0.000
  BG-RCP-2644                  0.000         0.000
  BG-RCP-2645                  0.000         0.000
  BG-RCP-2646                  0.000         0.000
  BG-RCP-2647                  0.000         0.000
  BG-RCP-2650                  0.000         0.000
  BG-RCP-2651                  0.000         0.000
  BG-RCP-2652                  0.000         0.000
  BG-RCP-2653                  0.000         0.000
  BG-RCP-2654                  0.000         0.000
  BG-RCP-2657                  0.000         0.000
  BG-RCP-2659                  0.000         0.000
  BG-RCP-2661                  0.000         0.000
  BG-RCP-2662                  0.000         0.000
  BG-RCP-2664                  0.000         0.000
  BG-RCP-2665              1.095e+06       139.066
  BG-RCP-2666              1.117e+06       138.964
  BG-RCP-2670                  0.000         0.000
  BG-RCP-2680                  0.000         0.000
  BG-RCP-2733                  0.000         0.000
  BG-RCP-2736                  0.000         0.000
  BG-RCP-3158                  0.000         0.000
  BG-RCP-3174              4.420e+06       369.779
  BG-RCP-3248                  0.000         0.000
  BG-RCPG-2404             1.668e+06       180.383
  BG-S-2234                    0.000         0.000
  BG-S-2235                    0.000         0.000
  BG-S-2263                    0.000         0.000
  BG-S-2264                    0.000         0.000
  BG-S-2669                1.143e+06       139.229
  BG-VC-1753               4.345e+06       369.326
  BG-VC-1775               4.200e+06       355.817
  BG-VC-2343                   0.000         0.000
  BG-VC-2549               1.367e+06       159.035
  BG-VC-2558               1.270e+06       152.415
  BG-VC-2568                   0.000         0.000
  BG-VC-2569                   0.000         0.000
  BG-VC-2580                   0.000         0.000
  BG-VC-2591                   0.000         0.000
  BG-VC-2600                   0.000         0.000
  BG-VC-2619                   0.000         0.000
  BG-VC-2623                   0.000         0.000
  BG-VC-3173               4.014e+06       337.311
  BG-W-2663                    0.000         0.000
  CDT-100                  3.325e+06       302.618
  CDT-101                  1.267e+05        12.622
  CDT-200                  5.233e+06       584.184
  CDT-201                  5.193e+06       578.173
  CDT-400                      0.000         0.000
  CDT-401                      0.000         0.000
  CDT-402                      0.000         0.000
  CDT-403                      0.000         0.000
  CDT-404                      0.000         0.000
  CDT-41                       0.000         0.000
  CDT-43                       0.000         0.000
  CDT-45                       0.000         0.000
  CDT-47                       0.000         0.000
  CDT-500                      0.000         0.000
  CDT-600                      0.000         0.000
  CDT-602                      0.000         0.000
  CDT-604                      0.000         0.000
  CDT-606                      0.000         0.000
  CDT-610                      0.000         0.000
  CDT-ARHDDOWN                 0.000         0.000
  MS-RCP-2043              5.241e+06       585.179
  SB-PVC-1418                  0.000         0.000
  SB-RCP-1233                  0.000         0.000
  SB-RCP-1235                  0.000         0.000
  SB-RCP-1420                  0.000         0.000
  SB-RCP-1422                  0.000         0.000
  SB-RCP-1518                  0.000         0.000
  SB-RCP-1519                  0.000         0.000
  SB-RCP-1520                  0.000         0.000
  SB-RCP-1522                  0.000         0.000
  SB-RCP-1524                  0.000         0.000
  SB-RCP-1525                  0.000         0.000
  SB-RCP-1527                  0.000         0.000
  SB-RCP-1528                  0.000         0.000
  SB-RCP-1531                  0.000         0.000
  SB-RCP-1532                  0.000         0.000
  SB-RCP-1534                  0.000         0.000
  SB-RCP-1536                  0.000         0.000
  SB-RCP-1538                  0.000         0.000
  SB-RCP-1540                  0.000         0.000
  SB-RCP-1541                  0.000         0.000
  SB-RCP-1543                  0.000         0.000
  SB-RCP-1545                  0.000         0.000
  SB-RCP-1548                  0.000         0.000
  SB-RCP-1555                  0.000         0.000
  SB-RCP-1558                  0.000         0.000
  SB-RCP-1560                  0.000         0.000
  SB-RCP-1564                  0.000         0.000
  SB-RCP-1565                  0.000         0.000
  SB-RCP-1566                  0.000         0.000
  SB-RCP-1568                  0.000         0.000
  SB-RCP-1571                  0.000         0.000
  SB-RCP-1575                  0.000         0.000
  SB-RCP-1580                  0.000         0.000
  SB-RCP-1581                  0.000         0.000
  SB-RCP-1582                  0.000         0.000
  SB-RCP-1584                  0.000         0.000
  SB-RCP-1585                  0.000         0.000
  SB-RCP-1590                  0.000         0.000
  SB-RCP-1592                  0.000         0.000
  SB-RCP-1595                  0.000         0.000
  SB-RCP-1602                  0.000         0.000
  SB-RCP-1611                  0.000         0.000
  SB-RCP-1615                  0.000         0.000
  SB-RCP-1617                  0.000         0.000
  SB-RCP-2710                  0.000         0.000
  SB-RCP-2711                  0.000         0.000
  SB-RCP-2712                  0.000         0.000
  SB-RCP-2718                  0.000         0.000
  SB-RCP-3138                  0.000         0.000
  SB-RCP-3159                  0.000         0.000
  SB-RCP-3161                  0.000         0.000
  SB-RCP-3162                  0.000         0.000
  SB-RCP-3163                  0.000         0.000
  SB-RCP-3164                  0.000         0.000
  SB-RCP-3165                  0.000         0.000
  SB-RCP-3166                  0.000         0.000
  SB-RCP-3167                  0.000         0.000
  SB-RCP-3168                  0.000         0.000
  SB-RCP-3170                  0.000         0.000
  SB-RCP-3273                  0.000         0.000
  SB-RCP-3275                  0.000         0.000
  SB-RCP-3276                  0.000         0.000
  SB-RCP-3277                  0.000         0.000
  SB-RCP-3283                  0.000         0.000
  SB-RCP-3284                  0.000         0.000
  SB-RCP-3286                  0.000         0.000
  SB-RCP-3288                  0.000         0.000
  SB-RCP-3289                  0.000         0.000
  SB-RCP-3292                  0.000         0.000
  SB-RCP-3294                  0.000         0.000
  SB-RCP-3295                  0.000         0.000
  SB-RCP-3296                  0.000         0.000
  SB-RCP-3297                  0.000         0.000
  SB-RCP-3299                  0.000         0.000
  SB-RCP-3301                  0.000         0.000
  SB-RCP-3302                  0.000         0.000
  SB-RCP-3304                  0.000         0.000
  SB-RCP-3305                  0.000         0.000
  SB-RCP-3306                  0.000         0.000
  SB-RCP-3307                  0.000         0.000
  SB-RCP-3308                  0.000         0.000
  SB-RCP-3309                  0.000         0.000
  SB-RCP-3310                  0.000         0.000
  SB-RCP-3311                  0.000         0.000
  SB-RCP-3312                  0.000         0.000
  SB-RCP-3313                  0.000         0.000
  SB-RCP-3315                  0.000         0.000
  SB-RCP-3322                  0.000         0.000
  SB-RCP-3324                  0.000         0.000
  SB-RCP-3325                  0.000         0.000
  SB-RCP-3326                  0.000         0.000
  SB-RCP-3327                  0.000         0.000
  SB-RCP-3330                  0.000         0.000
  SB-RCP-3331                  0.000         0.000
  SB-RCP-3333                  0.000         0.000
  SB-RCP-3334                  0.000         0.000
  SB-RCP-3335                  0.000         0.000
  SB-RCP-3336                  0.000         0.000
  SB-RCP-3337                  0.000         0.000
  SB-RCP-3339                  0.000         0.000
  SB-RCP-3340                  0.000         0.000
  SB-RCP-3341                  0.000         0.000
  SB-RCP-3345                  0.000         0.000
  SB-RCP-3348                  0.000         0.000
  SB-RCP-3350                  0.000         0.000
  SB-RCP-3355                  0.000         0.000
  SB-RCP-3357                  0.000         0.000
  SB-RCP-3359                  0.000         0.000
  SB-RCP-3363                  0.000         0.000
  SB-S-1607                    0.000         0.000
  SB-S-1608                    0.000         0.000
  TX-HD-IN-PIPE                0.000         0.000
  WA-C-1428                    0.000         0.000
  WA-C-2703                    0.000         0.000
  WA-HD-IN-PIPE                0.000         0.000
  WA-PVC-2954                  0.000         0.000
  WA-RCP-1182                  0.000         0.000
  WA-RCP-1427                  0.000         0.000
  WA-RCP-1464                  0.000         0.000
  WA-RCP-1468                  0.000         0.000
  WA-RCP-1470                  0.000         0.000
  WA-RCP-1471                  0.000         0.000
  WA-RCP-1472                  0.000         0.000
  WA-RCP-1476                  0.000         0.000
  WA-RCP-1477                  0.000         0.000
  WA-RCP-1478                  0.000         0.000
  WA-RCP-1479                  0.000         0.000
  WA-RCP-1501                  0.000         0.000
  WA-RCP-1504                  0.000         0.000
  WA-RCP-1505                  0.000         0.000
  WA-RCP-1506                  0.000         0.000
  WA-RCP-1507                  0.000         0.000
  WA-RCP-1516                  0.000         0.000
  WA-RCP-2317                  0.000         0.000
  WA-RCP-2714                  0.000         0.000
  WA-RCP-2715                  0.000         0.000
  WA-RCP-2716                  0.000         0.000
  WA-S-1466                    0.000         0.000
  WA-SB-1423                   0.000         0.000
  WA-SB-1426                   0.000         0.000
  WA-SB-1426-2                 0.000         0.000
  WA-SB-1429                   0.000         0.000
  WA-SB-1429-2                 0.000         0.000
  WA-SB-1430                   0.000         0.000
  WA-SB-1462                   0.000         0.000
  WA-SB-1463                   0.000         0.000
  WA-SB-1463-2                 0.000         0.000
  WA-SB-1473                   0.000         0.000
  WA-SB-2707                   0.000         0.000
  WA-SB-2708                   0.000         0.000
  

  Analysis begun on:  Fri Nov 29 11:03:44 2019
  Analysis ended on:  Fri Nov 29 11:05:08 2019
  Total elapsed time: 00:01:24