
  EPA STORM WATER MANAGEMENT MODEL - VERSION 5.1 (Build 5.1.013)
  --------------------------------------------------------------

  WARNING 04: minimum elevation drop used for Conduit 21780.1
  WARNING 04: minimum elevation drop used for Conduit 21916.1
  WARNING 04: minimum elevation drop used for Conduit P20975.1
  
  *********************************************************
  NOTE: The summary statistics displayed in this report are
  based on results found at every computational time step,  
  not just on results from each reporting time step.
  *********************************************************
  
  ****************
  Analysis Options
  ****************
  Flow Units ............... GPM
  Process Models:
    Rainfall/Runoff ........ NO
    RDII ................... NO
    Snowmelt ............... NO
    Groundwater ............ NO
    Flow Routing ........... YES
    Ponding Allowed ........ NO
    Water Quality .......... NO
  Flow Routing Method ...... DYNWAVE
  Surcharge Method ......... EXTRAN
  Starting Date ............ 01/01/2002 00:00:00
  Ending Date .............. 01/02/2002 00:00:00
  Antecedent Dry Days ...... 5.0
  Report Time Step ......... 00:05:00
  Routing Time Step ........ 300.00 sec
  Variable Time Step ....... YES
  Maximum Trials ........... 8
  Number of Threads ........ 8
  Head Tolerance ........... 0.005000 ft
  
  
  **************************        Volume        Volume
  Flow Routing Continuity        acre-feet      10^6 gal
  **************************     ---------     ---------
  Dry Weather Inflow .......         4.787         1.560
  Wet Weather Inflow .......         0.000         0.000
  Groundwater Inflow .......         0.000         0.000
  RDII Inflow ..............         0.000         0.000
  External Inflow ..........         0.000         0.000
  External Outflow .........         4.816         1.569
  Flooding Loss ............         0.000         0.000
  Evaporation Loss .........         0.000         0.000
  Exfiltration Loss ........         0.000         0.000
  Initial Stored Volume ....         0.911         0.297
  Final Stored Volume ......         0.915         0.298
  Continuity Error (%) .....        -0.587
  
  
  *************************
  Highest Continuity Errors
  *************************
  Node WW21189 (-243.11%)
  Node WW21780 (-160.09%)
  Node 21944 (98.93%)
  Node 21780 (91.50%)
  Node F20976 (86.98%)
  
  
  ***************************
  Time-Step Critical Elements
  ***************************
  Link 22490.1 (52.55%)
  Link 20489.3 (31.87%)
  Link 20435.1 (12.29%)
  Link 21623.1 (1.92%)
  Link 20083.1 (1.23%)
  
  
  ********************************
  Highest Flow Instability Indexes
  ********************************
  Link 20858.1 (15)
  Link 20856.1 (4)
  
  
  *************************
  Routing Time Step Summary
  *************************
  Minimum Time Step           :     0.61 sec
  Average Time Step           :     9.75 sec
  Maximum Time Step           :    10.07 sec
  Percent in Steady State     :     0.00
  Average Iterations per Step :     3.65
  Percent Not Converging      :    18.13
  
  
  ******************
  Node Depth Summary
  ******************
  
  ---------------------------------------------------------------------------------
                                 Average  Maximum  Maximum  Time of Max    Reported
                                   Depth    Depth      HGL   Occurrence   Max Depth
  Node                 Type         Feet     Feet     Feet  days hr:min        Feet
  ---------------------------------------------------------------------------------
  10001                JUNCTION     0.03     0.15  5289.98     0  00:00        0.10
  10002                JUNCTION     0.04     0.12  5287.41     0  00:02        0.11
  10003                JUNCTION     0.05     0.15  5285.43     0  00:00        0.13
  10004                JUNCTION     0.06     0.19  5283.53     0  00:00        0.17
  10005                JUNCTION     0.07     0.19  5284.08     0  00:04        0.19
  10006                JUNCTION     0.06     0.18  5285.20     0  00:05        0.18
  10007                JUNCTION     0.06     0.22  5285.91     0  00:00        0.21
  10008                JUNCTION     0.19     0.22  5282.84     0  01:11        0.22
  10009                JUNCTION     0.06     0.08  5284.33     0  00:00        0.07
  10010                JUNCTION     0.05     0.06  5284.50     0  10:00        0.06
  10011                JUNCTION     0.05     0.06  5285.09     0  00:00        0.05
  10012                JUNCTION     0.03     0.03  5284.14     0  10:00        0.03
  10013                JUNCTION     0.05     0.06  5282.93     0  10:00        0.06
  10014                JUNCTION     0.07     0.07  5281.00     0  09:46        0.07
  10015                JUNCTION     0.06     0.07  5280.00     0  00:00        0.07
  10016                JUNCTION     0.06     0.07  5278.42     0  00:00        0.07
  10017                JUNCTION     0.07     0.08  5276.46     0  00:05        0.08
  10018                JUNCTION     0.02     0.02  5284.92     0  00:00        0.02
  10019                JUNCTION     0.05     0.05  5283.42     0  10:00        0.05
  10020                JUNCTION     0.02     0.04  5284.65     0  00:00        0.03
  10021                JUNCTION     0.04     0.05  5285.20     0  10:00        0.05
  10022                JUNCTION     0.02     0.02  5285.83     0  00:00        0.02
  10023                JUNCTION     0.02     0.02  5286.50     0  00:00        0.02
  10024                JUNCTION     0.02     0.02  5285.63     0  00:03        0.02
  10025                JUNCTION     0.02     0.02  5286.56     0  00:00        0.02
  10026                JUNCTION     0.04     0.05  5286.16     0  10:00        0.05
  10027                JUNCTION     0.03     0.04  5287.91     0  09:15        0.04
  10028                JUNCTION     0.02     0.04  5288.68     0  09:07        0.04
  10029                JUNCTION     0.21     0.26  5286.37     0  01:07        0.25
  10030                JUNCTION     0.21     0.26  5286.52     0  01:07        0.25
  10031                JUNCTION     0.05     0.20  5287.13     0  00:02        0.18
  10032                JUNCTION     0.18     0.22  5291.62     0  01:06        0.22
  10033                JUNCTION     0.03     0.16  5291.89     0  00:00        0.11
  10034                JUNCTION     0.18     0.22  5297.14     0  01:04        0.22
  10035                JUNCTION     0.03     0.16  5296.67     0  00:00        0.07
  10036                JUNCTION     0.02     0.08  5299.13     0  00:00        0.03
  10037                JUNCTION     0.25     0.31  5298.91     0  01:03        0.31
  10038                JUNCTION     0.11     0.13  5299.56     0  01:01        0.13
  10039                JUNCTION     0.24     0.29  5300.48     0  01:01        0.29
  10040                JUNCTION     0.21     0.26  5302.59     0  00:00        0.25
  10041                JUNCTION     0.27     0.34  5303.80     0  00:58        0.34
  10042                JUNCTION     0.18     0.22  5306.64     0  00:56        0.22
  10043                JUNCTION     0.05     0.14  5289.63     0  00:00        0.12
  10044                JUNCTION     0.06     0.15  5293.84     0  00:00        0.12
  10045                JUNCTION     0.05     0.15  5298.81     0  00:00        0.09
  10046                JUNCTION     0.05     0.09  5301.76     0  00:00        0.08
  10047                JUNCTION     0.02     0.06  5309.91     0  00:00        0.03
  10048                JUNCTION     0.14     0.15  5314.33     0  00:38        0.15
  10049                JUNCTION     0.14     0.15  5316.01     0  00:35        0.15
  10050                JUNCTION     0.03     0.03  5290.71     0  00:00        0.03
  10051                JUNCTION     0.02     0.03  5294.39     0  00:01        0.03
  10052                JUNCTION     0.02     0.02  5296.73     0  00:00        0.02
  10053                JUNCTION     0.23     0.23  5305.35     0  09:17        0.23
  10054                JUNCTION     0.09     0.10  5307.76     0  08:32        0.10
  10055                JUNCTION     0.09     0.09  5312.34     0  10:06        0.09
  10056                JUNCTION     0.08     0.08  5320.59     0  23:35        0.08
  10057                JUNCTION     0.02     0.07  5296.01     0  00:00        0.04
  10058                JUNCTION     0.20     0.20  5304.22     0  10:37        0.20
  10059                JUNCTION     0.10     0.10  5307.36     0  10:38        0.10
  10060                JUNCTION     0.09     0.11  5309.05     0  00:00        0.10
  10061                JUNCTION     0.09     0.10  5314.16     0  10:33        0.10
  10062                JUNCTION     0.09     0.09  5317.11     0  10:29        0.09
  10063                JUNCTION     0.02     0.02  5317.34     0  00:03        0.02
  10064                JUNCTION     0.02     0.02  5317.65     0  00:00        0.02
  10065                JUNCTION     0.02     0.02  5319.71     0  00:00        0.02
  10066                JUNCTION     0.01     0.02  5312.00     0  00:00        0.01
  10067                JUNCTION     0.02     0.03  5305.79     0  00:00        0.02
  10068                JUNCTION     0.03     0.03  5305.50     0  00:00        0.03
  10069                JUNCTION     0.04     0.05  5302.76     0  00:01        0.05
  10070                JUNCTION     0.04     0.05  5300.69     0  00:00        0.04
  10071                JUNCTION     0.04     0.05  5303.28     0  00:00        0.04
  10072                JUNCTION     0.04     0.04  5304.37     0  00:03        0.04
  10073                JUNCTION     0.02     0.03  5308.11     0  00:00        0.02
  10074                JUNCTION     0.03     0.04  5304.22     0  00:00        0.03
  10075                JUNCTION     0.03     0.03  5304.95     0  00:05        0.03
  10076                JUNCTION     0.02     0.02  5307.72     0  00:00        0.02
  10078                JUNCTION     0.15     0.16  5312.81     0  00:40        0.16
  152                  JUNCTION     0.00     0.01  5363.14     0  00:00        0.01
  20079                JUNCTION     0.03     0.04  5313.10     0  00:00        0.03
  20080                JUNCTION     0.01     0.02  5314.56     0  00:00        0.02
  20081                JUNCTION     0.15     0.15  5310.87     0  00:45        0.15
  20082                JUNCTION     0.02     0.03  5288.92     0  00:00        0.02
  20083                JUNCTION     0.08     0.22  5279.29     0  00:02        0.22
  20084                JUNCTION     0.10     0.25  5279.27     0  00:04        0.25
  20085                JUNCTION     0.08     0.25  5275.72     0  00:00        0.22
  20086                JUNCTION     0.09     0.24  5258.37     0  00:02        0.24
  20087                JUNCTION     0.10     0.11  5301.04     0  00:00        0.11
  20088                JUNCTION     0.09     0.10  5297.86     0  00:00        0.09
  20089                JUNCTION     0.09     0.10  5295.28     0  00:01        0.10
  20090                JUNCTION     0.10     0.10  5290.73     0  00:00        0.10
  20091                JUNCTION     0.11     0.12  5284.95     0  00:05        0.12
  20092                JUNCTION     0.12     0.12  5305.20     0  00:21        0.12
  20093                JUNCTION     0.10     0.10  5303.64     0  00:28        0.10
  20094                JUNCTION     0.03     0.03  5306.30     0  00:00        0.03
  20095                JUNCTION     0.03     0.03  5310.49     0  22:26        0.03
  20096                JUNCTION     0.02     0.02  5313.55     0  00:00        0.02
  20097                JUNCTION     0.03     0.03  5317.18     0  00:04        0.03
  20098                JUNCTION     0.02     0.02  5317.76     0  00:00        0.02
  20099                JUNCTION     0.07     0.20  5282.90     0  00:00        0.17
  20100                JUNCTION     0.02     0.03  5286.12     0  00:00        0.02
  20101                JUNCTION     0.10     0.10  5308.30     0  00:12        0.10
  20102                JUNCTION     0.06     0.07  5310.68     0  00:00        0.06
  20103                JUNCTION     0.14     0.19  5319.24     0  00:00        0.18
  20104                JUNCTION     0.19     0.24  5323.99     0  00:53        0.24
  20105                JUNCTION     0.22     0.28  5326.24     0  00:51        0.28
  20106                JUNCTION     0.20     0.25  5327.90     0  00:50        0.25
  20107                JUNCTION     0.19     0.24  5329.26     0  00:49        0.24
  20108                JUNCTION     0.23     0.29  5330.00     0  00:48        0.29
  20109                JUNCTION     0.19     0.24  5332.04     0  00:47        0.24
  20110                JUNCTION     0.22     0.28  5333.48     0  00:45        0.28
  20111                JUNCTION     0.22     0.28  5335.29     0  00:42        0.28
  20112                JUNCTION     0.13     0.13  5320.52     0  00:30        0.13
  20113                JUNCTION     0.11     0.13  5328.00     0  00:00        0.12
  20114                JUNCTION     0.05     0.06  5331.19     0  00:03        0.06
  20115                JUNCTION     0.04     0.05  5332.20     0  00:00        0.04
  20116                JUNCTION     0.04     0.04  5333.50     0  00:00        0.04
  20117                JUNCTION     0.04     0.05  5332.27     0  00:00        0.04
  20118                JUNCTION     0.04     0.04  5333.60     0  00:02        0.04
  20119                JUNCTION     0.02     0.03  5338.57     0  00:00        0.03
  20120                JUNCTION     0.02     0.02  5341.58     0  00:00        0.02
  20121                JUNCTION     0.02     0.02  5339.08     0  00:00        0.02
  20122                JUNCTION     0.02     0.02  5332.57     0  00:00        0.02
  20123                JUNCTION     0.03     0.03  5327.69     0  00:02        0.03
  20124                JUNCTION     0.04     0.04  5323.06     0  00:00        0.04
  20125                JUNCTION     0.02     0.02  5325.29     0  00:00        0.02
  20126                JUNCTION     0.08     0.09  5313.43     0  00:05        0.09
  20127                JUNCTION     0.07     0.09  5314.25     0  00:01        0.08
  20128                JUNCTION     0.07     0.09  5317.22     0  00:00        0.07
  20129                JUNCTION     0.10     0.10  5318.36     0  02:17        0.10
  20130                JUNCTION     0.08     0.09  5319.68     0  00:09        0.09
  20131                JUNCTION     0.02     0.02  5329.56     0  00:00        0.02
  20132                JUNCTION     0.02     0.02  5331.31     0  00:00        0.02
  20133                JUNCTION     0.02     0.02  5319.47     0  00:00        0.02
  20134                JUNCTION     0.02     0.10  5320.57     0  00:00        0.03
  20135                JUNCTION     0.02     0.07  5317.36     0  00:01        0.05
  20136                JUNCTION     0.04     0.07  5314.29     0  00:05        0.07
  20137                JUNCTION     0.07     0.08  5320.39     0  00:00        0.08
  20138                JUNCTION     0.08     0.08  5321.31     0  00:04        0.08
  20139                JUNCTION     0.07     0.08  5322.42     0  00:01        0.08
  20140                JUNCTION     0.08     0.08  5323.91     0  01:39        0.08
  20141                JUNCTION     0.06     0.07  5325.63     0  00:00        0.06
  20142                JUNCTION     0.06     0.06  5326.87     0  01:33        0.06
  20143                JUNCTION     0.04     0.04  5330.23     0  01:24        0.04
  20144                JUNCTION     0.02     0.02  5333.89     0  03:34        0.02
  20145                JUNCTION     0.01     0.01  5339.35     0  00:00        0.01
  20146                JUNCTION     0.04     0.04  5331.28     0  01:13        0.04
  20150                JUNCTION     0.04     0.04  5328.70     0  00:00        0.04
  20151                JUNCTION     0.07     0.08  5323.46     0  00:00        0.07
  20152                JUNCTION     0.02     0.03  5330.42     0  00:00        0.02
  20153                JUNCTION     0.03     0.03  5331.32     0  00:40        0.03
  20154                JUNCTION     0.02     0.02  5332.28     0  00:00        0.02
  20155                JUNCTION     0.07     0.07  5334.09     0  00:00        0.07
  20156                JUNCTION     0.07     0.08  5333.62     0  00:00        0.07
  20157                JUNCTION     0.08     0.09  5333.03     0  00:02        0.08
  20158                JUNCTION     0.06     0.08  5332.10     0  00:00        0.06
  20159                JUNCTION     0.06     0.06  5334.69     0  18:32        0.06
  20160                JUNCTION     0.03     0.03  5335.48     0  12:23        0.03
  20161                JUNCTION     0.04     0.04  5335.58     0  10:16        0.04
  20162                JUNCTION     0.02     0.02  5340.84     0  00:00        0.02
  20163                JUNCTION     0.02     0.03  5338.96     0  00:00        0.02
  20164                JUNCTION     0.04     0.05  5343.09     0  00:00        0.05
  20165                JUNCTION     0.05     0.05  5342.16     0  00:16        0.05
  20166                JUNCTION     0.07     0.07  5340.21     0  00:07        0.07
  20167                JUNCTION     0.09     0.10  5337.56     0  00:00        0.09
  20168                JUNCTION     0.32     0.33  5336.93     0  00:09        0.33
  20169                JUNCTION     0.08     0.10  5338.44     0  00:00        0.09
  20170                JUNCTION     0.08     0.08  5340.37     0  21:46        0.08
  20171                JUNCTION     0.12     0.13  5336.92     0  00:09        0.13
  20172                JUNCTION     0.10     0.14  5334.08     0  00:00        0.11
  20173                JUNCTION     0.14     0.15  5330.38     0  00:19        0.15
  20174                JUNCTION     0.08     0.09  5326.81     0  11:55        0.09
  20175                JUNCTION     0.02     0.03  5331.80     0  00:00        0.03
  20176                JUNCTION     0.08     0.10  5343.08     0  00:00        0.09
  20177                JUNCTION     0.08     0.09  5332.42     0  07:32        0.09
  20178                JUNCTION     0.08     0.08  5336.66     0  21:50        0.08
  20179                JUNCTION     0.07     0.08  5347.44     0  10:22        0.08
  20180                JUNCTION     0.08     0.08  5348.55     0  20:54        0.08
  20181                JUNCTION     0.01     0.02  5335.55     0  00:00        0.01
  20182                JUNCTION     0.08     0.08  5322.61     0  10:26        0.08
  20183                JUNCTION     0.07     0.07  5329.87     0  10:23        0.07
  20184                JUNCTION     0.08     0.08  5336.70     0  10:19        0.08
  20185                JUNCTION     0.08     0.09  5339.85     0  00:00        0.08
  20186                JUNCTION     0.08     0.08  5344.01     0  10:14        0.08
  20187                JUNCTION     0.07     0.08  5347.39     0  00:00        0.07
  20188                JUNCTION     0.08     0.08  5349.31     0  10:09        0.08
  20189                JUNCTION     0.02     0.02  5325.02     0  00:00        0.02
  20190                JUNCTION     0.02     0.02  5332.02     0  00:00        0.02
  20191                JUNCTION     0.02     0.02  5338.81     0  00:01        0.02
  20192                JUNCTION     0.01     0.02  5341.20     0  00:00        0.01
  20193                JUNCTION     0.02     0.02  5347.15     0  00:00        0.02
  20194                JUNCTION     0.01     0.02  5352.13     0  00:00        0.02
  20195                JUNCTION     0.02     0.03  5358.02     0  00:00        0.02
  20196                JUNCTION     0.03     0.04  5355.62     0  00:00        0.03
  20197                JUNCTION     0.05     0.05  5353.20     0  00:10        0.05
  20198                JUNCTION     0.05     0.06  5351.47     0  00:00        0.05
  20199                JUNCTION     0.09     0.10  5350.00     0  00:04        0.10
  20200                JUNCTION     0.09     0.12  5348.88     0  00:00        0.11
  20201                JUNCTION     0.10     0.13  5347.66     0  00:00        0.11
  20202                JUNCTION     0.35     0.36  5346.02     0  00:21        0.36
  20203                JUNCTION     0.10     0.11  5346.01     0  00:21        0.11
  20204                JUNCTION     0.10     0.13  5343.67     0  00:00        0.11
  20205                JUNCTION     0.13     0.15  5341.09     0  00:00        0.14
  20206                JUNCTION     0.12     0.16  5339.87     0  00:00        0.14
  20207                JUNCTION     0.14     0.17  5338.56     0  00:04        0.17
  20208                JUNCTION     0.13     0.18  5338.25     0  00:00        0.16
  20209                JUNCTION     0.14     0.18  5336.57     0  00:00        0.17
  20210                JUNCTION     0.02     0.02  5347.61     0  00:00        0.02
  20211                JUNCTION     0.03     0.03  5346.96     0  00:04        0.03
  20212                JUNCTION     0.02     0.02  5349.43     0  00:00        0.02
  20213                JUNCTION     0.05     0.06  5349.69     0  00:00        0.05
  20214                JUNCTION     0.04     0.06  5348.22     0  00:00        0.05
  20215                JUNCTION     0.07     0.09  5349.21     0  00:00        0.08
  20216                JUNCTION     0.08     0.08  5352.83     0  07:05        0.08
  20217                JUNCTION     0.02     0.02  5354.39     0  00:00        0.02
  20218                JUNCTION     0.07     0.07  5355.08     0  10:07        0.07
  20219                JUNCTION     0.02     0.02  5359.93     0  00:01        0.02
  20220                JUNCTION     0.01     0.02  5365.76     0  00:00        0.01
  20221                JUNCTION     0.03     0.03  5361.91     0  00:05        0.03
  20222                JUNCTION     0.05     0.07  5356.69     0  00:00        0.06
  20223                JUNCTION     0.06     0.06  5360.66     0  00:04        0.06
  20224                JUNCTION     0.05     0.07  5364.95     0  00:00        0.06
  20225                JUNCTION     0.05     0.06  5370.18     0  00:00        0.05
  20226                JUNCTION     0.04     0.05  5376.71     0  00:05        0.05
  20227                JUNCTION     0.02     0.03  5384.22     0  00:00        0.03
  20228                JUNCTION     0.02     0.02  5390.85     0  00:00        0.02
  20229                JUNCTION     0.03     0.04  5380.76     0  00:00        0.03
  20230                JUNCTION     0.03     0.03  5384.18     0  00:00        0.03
  20231                JUNCTION     0.02     0.03  5388.06     0  00:00        0.02
  20232                JUNCTION     0.04     0.04  5347.11     0  00:21        0.04
  20233                JUNCTION     0.03     0.03  5347.81     0  00:10        0.03
  20234                JUNCTION     0.05     0.07  5340.79     0  00:00        0.06
  20235                JUNCTION     0.05     0.07  5342.18     0  00:00        0.06
  20236                JUNCTION     0.02     0.02  5354.10     0  00:00        0.02
  20237                JUNCTION     0.05     0.06  5342.86     0  00:02        0.06
  20238                JUNCTION     0.03     0.04  5349.93     0  00:00        0.03
  20239                JUNCTION     0.03     0.04  5352.28     0  00:00        0.03
  20240                JUNCTION     0.02     0.03  5357.56     0  00:00        0.02
  20241                JUNCTION     0.02     0.02  5362.60     0  00:00        0.02
  20242                JUNCTION     0.12     0.16  5347.79     0  00:39        0.16
  20243                JUNCTION     0.16     0.21  5353.10     0  00:38        0.21
  20244                JUNCTION     0.15     0.21  5356.45     0  00:36        0.21
  20245                JUNCTION     0.15     0.21  5362.84     0  00:34        0.21
  20246                JUNCTION     0.15     0.21  5367.75     0  00:32        0.20
  20247                JUNCTION     0.16     0.22  5371.74     0  00:30        0.22
  20248                JUNCTION     0.15     0.21  5375.35     0  00:29        0.21
  20249                JUNCTION     0.05     0.07  5375.59     0  00:00        0.06
  20250                JUNCTION     0.13     0.18  5384.20     0  00:26        0.18
  20251                JUNCTION     0.09     0.11  5300.36     0  00:00        0.09
  20252                JUNCTION     0.18     0.26  5386.56     0  00:23        0.26
  20253                JUNCTION     0.14     0.20  5391.21     0  00:20        0.20
  20254                JUNCTION     0.02     0.02  5352.84     0  00:00        0.02
  20255                JUNCTION     0.04     0.05  5352.08     0  00:14        0.05
  20256                JUNCTION     0.02     0.02  5355.86     0  00:00        0.02
  20257                JUNCTION     0.03     0.04  5354.23     0  00:05        0.04
  20258                JUNCTION     0.02     0.03  5360.62     0  00:00        0.03
  20259                JUNCTION     0.03     0.03  5361.78     0  00:00        0.03
  20260                JUNCTION     0.02     0.03  5356.22     0  00:00        0.02
  20261                JUNCTION     0.05     0.05  5355.28     0  15:08        0.05
  20262                JUNCTION     0.02     0.03  5356.29     0  00:00        0.02
  20263                JUNCTION     0.02     0.03  5356.61     0  00:00        0.02
  20264                JUNCTION     0.07     0.08  5354.21     0  00:01        0.08
  20265                JUNCTION     0.06     0.08  5359.63     0  00:00        0.06
  20266                JUNCTION     0.08     0.08  5360.46     0  00:06        0.08
  20267                JUNCTION     0.06     0.08  5363.01     0  00:00        0.07
  20268                JUNCTION     0.07     0.07  5365.55     0  00:22        0.07
  20269                JUNCTION     0.05     0.05  5367.40     0  00:12        0.05
  20270                JUNCTION     0.04     0.05  5369.32     0  00:11        0.05
  20271                JUNCTION     0.02     0.02  5374.05     0  00:00        0.02
  20272                JUNCTION     0.03     0.04  5371.74     0  00:00        0.04
  20273                JUNCTION     0.03     0.03  5374.09     0  00:02        0.03
  20274                JUNCTION     0.02     0.03  5376.69     0  00:00        0.02
  20275                JUNCTION     0.02     0.02  5380.45     0  00:00        0.02
  20276                JUNCTION     0.03     0.03  5373.83     0  00:03        0.03
  20277                JUNCTION     0.03     0.04  5370.04     0  00:00        0.03
  20278                JUNCTION     0.03     0.03  5361.39     0  00:00        0.03
  20279                JUNCTION     0.02     0.03  5367.79     0  00:00        0.02
  20280                JUNCTION     0.05     0.07  5377.68     0  00:00        0.06
  20281                JUNCTION     0.04     0.06  5380.71     0  00:00        0.04
  20282                JUNCTION     0.02     0.02  5386.82     0  00:00        0.02
  20283                JUNCTION     0.04     0.04  5382.21     0  00:11        0.04
  20284                JUNCTION     0.11     0.11  5380.71     0  06:26        0.11
  20285                JUNCTION     0.02     0.03  5382.65     0  00:00        0.02
  20286                JUNCTION     0.04     0.04  5381.25     0  00:07        0.04
  20287                JUNCTION     0.02     0.02  5388.19     0  00:00        0.02
  20288                JUNCTION     0.04     0.05  5380.56     0  00:01        0.04
  20289                JUNCTION     0.02     0.03  5386.81     0  00:00        0.02
  20290                JUNCTION     0.06     0.06  5378.29     0  00:11        0.06
  20291                JUNCTION     0.03     0.04  5384.76     0  00:00        0.04
  20292                JUNCTION     0.03     0.03  5394.09     0  00:00        0.03
  20293                JUNCTION     0.02     0.03  5397.07     0  00:00        0.02
  20294                JUNCTION     0.07     0.08  5358.50     0  08:33        0.08
  20295                JUNCTION     0.07     0.08  5364.19     0  16:34        0.08
  20296                JUNCTION     0.07     0.07  5371.08     0  14:24        0.07
  20297                JUNCTION     0.46     0.47  5371.09     0  16:23        0.47
  20298                JUNCTION     0.06     0.06  5361.83     0  10:03        0.06
  20299                JUNCTION     0.22     0.23  5289.97     0  10:47        0.23
  20300                JUNCTION     0.12     0.12  5285.50     0  10:48        0.12
  20301                JUNCTION     0.17     0.17  5284.30     0  10:49        0.17
  20302                JUNCTION     0.19     0.19  5280.82     0  10:50        0.19
  20303                JUNCTION     0.15     0.15  5277.39     0  10:50        0.15
  20304                JUNCTION     0.21     0.24  5268.32     0  00:01        0.22
  20305                JUNCTION     0.09     0.22  5270.49     0  00:00        0.13
  20306                JUNCTION     0.24     0.27  5278.86     0  00:02        0.25
  20307                JUNCTION     0.03     0.03  5279.42     0  00:00        0.03
  20308                JUNCTION     0.04     0.05  5356.75     0  00:00        0.04
  20309                JUNCTION     0.03     0.04  5357.11     0  00:00        0.04
  20310                JUNCTION     0.07     0.07  5364.81     0  10:02        0.07
  20311                JUNCTION     0.07     0.08  5367.68     0  10:01        0.08
  20312                JUNCTION     0.07     0.08  5372.29     0  10:00        0.08
  20313                JUNCTION     0.01     0.01  5363.17     0  00:00        0.01
  20314                JUNCTION     0.02     0.02  5361.45     0  00:01        0.02
  20315                JUNCTION     0.03     0.04  5358.02     0  00:00        0.03
  20316                JUNCTION     0.02     0.03  5358.60     0  00:00        0.02
  20317                JUNCTION     0.07     0.08  5370.40     0  10:00        0.08
  20318                JUNCTION     0.18     0.18  5298.13     0  10:43        0.18
  20319                JUNCTION     0.09     0.12  5306.03     0  00:00        0.10
  20320                JUNCTION     0.10     0.11  5311.63     0  00:10        0.11
  20321                JUNCTION     0.09     0.12  5313.30     0  00:00        0.10
  20322                JUNCTION     0.09     0.12  5316.48     0  00:00        0.10
  20323                JUNCTION     0.09     0.10  5318.31     0  00:05        0.10
  20324                JUNCTION     0.09     0.09  5331.25     0  00:05        0.09
  20325                JUNCTION     0.08     0.09  5337.49     0  00:01        0.09
  20326                JUNCTION     0.10     0.13  5342.29     0  00:00        0.11
  20327                JUNCTION     0.10     0.11  5346.46     0  00:09        0.11
  20328                JUNCTION     0.10     0.11  5351.86     0  00:05        0.11
  20329                JUNCTION     0.09     0.10  5365.15     0  00:02        0.10
  20330                JUNCTION     0.09     0.11  5366.99     0  00:00        0.09
  20331                JUNCTION     0.07     0.10  5367.13     0  00:00        0.07
  20332                JUNCTION     0.10     0.10  5369.29     0  00:16        0.10
  20333                JUNCTION     0.09     0.10  5371.86     0  00:10        0.10
  20334                JUNCTION     0.07     0.09  5376.62     0  00:04        0.09
  20335                JUNCTION     0.06     0.09  5382.41     0  00:00        0.08
  20336                JUNCTION     0.07     0.09  5383.43     0  00:01        0.08
  20337                JUNCTION     0.06     0.09  5389.37     0  00:00        0.07
  20338                JUNCTION     0.07     0.09  5390.85     0  00:00        0.07
  20339                JUNCTION     0.07     0.09  5392.03     0  00:00        0.08
  20340                JUNCTION     0.06     0.07  5397.70     0  00:11        0.07
  20341                JUNCTION     0.04     0.04  5400.66     0  00:00        0.04
  20342                JUNCTION     0.01     0.02  5407.01     0  00:00        0.02
  20343                JUNCTION     0.03     0.04  5401.45     0  00:01        0.04
  20344                JUNCTION     0.06     0.07  5401.13     0  00:06        0.07
  20345                JUNCTION     0.01     0.02  5406.34     0  00:00        0.01
  20346                JUNCTION     0.04     0.05  5403.09     0  00:00        0.05
  20347                JUNCTION     0.04     0.07  5404.72     0  00:00        0.04
  20348                JUNCTION     0.07     0.07  5405.23     0  00:38        0.07
  20349                JUNCTION     0.02     0.02  5408.50     0  00:00        0.02
  20350                JUNCTION     0.04     0.05  5291.78     0  00:11        0.05
  20351                JUNCTION     0.03     0.06  5298.36     0  00:00        0.05
  20352                JUNCTION     0.03     0.05  5304.95     0  00:04        0.05
  20353                JUNCTION     0.03     0.07  5310.90     0  00:00        0.05
  20354                JUNCTION     0.02     0.06  5319.55     0  00:00        0.03
  20355                JUNCTION     0.02     0.03  5325.41     0  00:00        0.03
  20356                JUNCTION     0.01     0.02  5329.16     0  00:00        0.01
  20357                JUNCTION     0.07     0.08  5335.68     0  00:10        0.08
  20358                JUNCTION     0.02     0.03  5341.55     0  00:03        0.03
  20359                JUNCTION     0.02     0.02  5350.07     0  00:00        0.02
  20360                JUNCTION     0.02     0.02  5353.87     0  00:07        0.02
  20361                JUNCTION     0.01     0.02  5364.64     0  00:00        0.01
  20362                JUNCTION     0.21     0.23  5285.41     0  00:00        0.22
  20363                JUNCTION     0.22     0.24  5290.74     0  00:00        0.24
  20364                JUNCTION     0.24     0.26  5296.29     0  00:07        0.26
  20365                JUNCTION     0.23     0.26  5299.19     0  00:00        0.25
  20366                JUNCTION     0.25     0.27  5301.13     0  00:04        0.27
  20367                JUNCTION     0.21     0.24  5301.84     0  00:35        0.24
  20368                JUNCTION     0.10     0.10  5302.32     0  11:00        0.10
  20369                JUNCTION     0.08     0.08  5307.68     0  11:00        0.08
  20370                JUNCTION     0.17     0.19  5305.12     0  00:35        0.19
  20371                JUNCTION     0.09     0.10  5311.53     0  11:00        0.10
  20372                JUNCTION     0.03     0.03  5299.48     0  00:00        0.03
  20373                JUNCTION     0.04     0.04  5297.66     0  23:28        0.04
  20374                JUNCTION     0.09     0.11  5270.94     0  00:00        0.11
  20375                JUNCTION     0.08     0.10  5272.73     0  00:23        0.10
  20376                JUNCTION     0.06     0.08  5280.65     0  00:00        0.07
  20377                JUNCTION     0.06     0.07  5286.36     0  00:00        0.07
  20378                JUNCTION     0.02     0.02  5287.20     0  00:00        0.02
  20379                JUNCTION     0.11     0.14  5286.62     0  00:16        0.14
  20380                JUNCTION     0.06     0.08  5288.71     0  00:14        0.08
  20381                JUNCTION     0.03     0.05  5290.74     0  00:02        0.05
  20382                JUNCTION     0.02     0.04  5298.79     0  00:00        0.03
  20383                JUNCTION     0.05     0.07  5289.45     0  00:00        0.07
  20384                JUNCTION     0.06     0.07  5291.92     0  00:13        0.07
  20385                JUNCTION     0.04     0.05  5292.76     0  00:11        0.05
  20386                JUNCTION     0.04     0.06  5295.46     0  00:10        0.06
  20387                JUNCTION     0.05     0.05  5293.31     0  05:13        0.05
  20388                JUNCTION     0.01     0.02  5275.14     0  00:00        0.01
  20389                JUNCTION     0.02     0.02  5268.48     0  00:01        0.02
  20390                JUNCTION     0.02     0.03  5263.44     0  00:00        0.03
  20391                JUNCTION     0.23     0.31  5260.67     0  00:02        0.29
  20392                JUNCTION     0.28     0.36  5260.46     0  00:04        0.36
  20393                JUNCTION     0.21     0.30  5261.37     0  00:00        0.26
  20394                JUNCTION     0.11     0.11  5313.85     0  01:43        0.11
  20395                JUNCTION     0.08     0.08  5317.71     0  11:18        0.08
  20396                JUNCTION     0.08     0.08  5321.86     0  11:17        0.08
  20397                JUNCTION     0.02     0.04  5322.05     0  00:00        0.02
  20398                JUNCTION     0.08     0.08  5331.33     0  11:14        0.08
  20399                JUNCTION     0.04     0.05  5337.30     0  00:00        0.05
  20400                JUNCTION     0.04     0.05  5343.02     0  00:00        0.05
  20401                JUNCTION     0.01     0.02  5293.03     0  00:00        0.02
  20402                JUNCTION     0.03     0.04  5300.53     0  00:03        0.04
  20403                JUNCTION     0.02     0.04  5304.34     0  00:00        0.04
  20404                JUNCTION     0.03     0.06  5307.01     0  00:00        0.05
  20405                JUNCTION     0.04     0.06  5298.91     0  00:08        0.06
  20406                JUNCTION     0.01     0.02  5293.88     0  00:00        0.01
  20407                JUNCTION     0.01     0.01  5313.55     0  00:00        0.01
  20408                JUNCTION     0.03     0.03  5322.70     0  00:05        0.03
  20409                JUNCTION     0.06     0.06  5322.09     0  00:00        0.06
  20410                JUNCTION     0.02     0.02  5322.86     0  00:00        0.02
  20411                JUNCTION     0.01     0.01  5325.34     0  00:00        0.01
  20412                JUNCTION     0.03     0.03  5319.09     0  00:01        0.03
  20413                JUNCTION     0.02     0.02  5320.13     0  00:00        0.02
  20414                JUNCTION     0.03     0.03  5329.83     0  03:19        0.03
  20415                JUNCTION     0.03     0.03  5332.94     0  00:00        0.03
  20416                JUNCTION     0.02     0.02  5336.59     0  00:04        0.02
  20417                JUNCTION     0.02     0.02  5340.18     0  00:00        0.02
  20418                JUNCTION     0.09     0.11  5336.71     0  00:00        0.10
  20419                JUNCTION     0.08     0.09  5332.92     0  00:16        0.09
  20420                JUNCTION     0.17     0.17  5331.58     0  01:14        0.17
  20421                JUNCTION     0.23     0.24  5331.53     0  11:09        0.24
  20422                JUNCTION     0.01     0.02  5345.92     0  00:00        0.02
  20423                JUNCTION     0.02     0.02  5343.03     0  00:00        0.02
  20424                JUNCTION     0.02     0.03  5341.64     0  00:00        0.02
  20425                JUNCTION     0.02     0.03  5339.79     0  00:00        0.02
  20426                JUNCTION     0.02     0.02  5337.94     0  00:00        0.02
  20427                JUNCTION     0.03     0.03  5336.80     0  00:02        0.03
  20428                JUNCTION     0.03     0.04  5335.85     0  00:05        0.04
  20429                JUNCTION     0.17     0.21  5316.30     0  00:00        0.19
  20430                JUNCTION     0.20     0.22  5319.21     0  00:30        0.22
  20431                JUNCTION     0.17     0.19  5320.60     0  00:29        0.19
  20432                JUNCTION     0.15     0.19  5325.43     0  00:00        0.18
  20433                JUNCTION     0.16     0.19  5328.36     0  00:07        0.19
  20434                JUNCTION     0.15     0.19  5330.02     0  00:06        0.18
  20435                JUNCTION     0.16     0.20  5330.56     0  00:05        0.20
  20436                JUNCTION     0.14     0.17  5335.80     0  00:04        0.17
  20437                JUNCTION     0.14     0.18  5339.96     0  00:03        0.17
  20438                JUNCTION     0.13     0.18  5345.85     0  00:01        0.16
  20439                JUNCTION     0.13     0.20  5350.73     0  00:01        0.16
  20440                JUNCTION     0.33     0.40  5355.15     0  00:17        0.40
  20441                JUNCTION     0.13     0.25  5354.78     0  00:00        0.16
  20442                JUNCTION     0.03     0.03  5355.53     0  00:00        0.03
  20443                JUNCTION     0.04     0.04  5347.89     0  22:00        0.04
  20444                JUNCTION     0.05     0.05  5341.42     0  21:00        0.05
  20445                JUNCTION     0.05     0.05  5336.92     0  05:58        0.05
  20446                JUNCTION     0.06     0.06  5332.81     0  18:24        0.06
  20447                JUNCTION     0.07     0.07  5329.36     0  20:40        0.07
  20448                JUNCTION     0.10     0.10  5323.55     0  12:01        0.10
  20449                JUNCTION     0.04     0.04  5329.68     0  00:00        0.04
  20450                JUNCTION     0.03     0.03  5331.39     0  00:00        0.03
  20451                JUNCTION     0.02     0.03  5339.59     0  00:00        0.02
  20452                JUNCTION     0.06     0.06  5343.02     0  11:01        0.06
  20453                JUNCTION     0.03     0.03  5345.79     0  00:00        0.03
  20454                JUNCTION     0.05     0.05  5344.52     0  15:53        0.05
  20455                JUNCTION     0.17     0.21  5314.46     0  00:00        0.19
  20456                JUNCTION     0.08     0.08  5312.14     0  00:04        0.08
  20457                JUNCTION     0.02     0.02  5313.92     0  00:00        0.02
  20458                JUNCTION     0.09     0.10  5314.31     0  00:00        0.09
  20459                JUNCTION     0.02     0.22  5307.39     0  00:00        0.03
  20460                JUNCTION     0.10     0.24  5303.47     0  00:00        0.11
  20461                JUNCTION     0.10     0.37  5303.29     0  00:00        0.16
  20462                JUNCTION     0.08     0.09  5304.75     0  00:00        0.08
  20463                JUNCTION     0.04     0.04  5315.19     0  00:10        0.04
  20464                JUNCTION     0.03     0.03  5314.49     0  00:00        0.03
  20465                JUNCTION     0.09     0.09  5305.95     0  00:21        0.09
  20466                JUNCTION     0.03     0.03  5309.46     0  18:21        0.03
  20467                JUNCTION     0.02     0.03  5311.83     0  00:00        0.02
  20468                JUNCTION     0.09     0.10  5305.58     0  00:00        0.09
  20469                JUNCTION     0.23     0.30  5264.99     0  00:00        0.25
  20470                JUNCTION     0.03     0.04  5262.50     0  00:00        0.04
  20471                JUNCTION     0.04     0.05  5258.04     0  00:00        0.04
  20472                JUNCTION     0.24     0.31  5218.41     0  00:05        0.31
  20473                JUNCTION     0.04     0.04  5260.15     0  00:07        0.04
  20474                JUNCTION     0.04     0.05  5253.74     0  00:00        0.05
  20475                JUNCTION     0.04     0.05  5248.88     0  00:00        0.05
  20476                JUNCTION     0.18     0.24  5212.98     0  00:01        0.22
  20477                JUNCTION     0.03     0.04  5227.39     0  00:00        0.03
  20478                JUNCTION     0.04     0.05  5234.22     0  00:00        0.05
  20479                JUNCTION     0.03     0.04  5242.98     0  00:00        0.04
  20480                JUNCTION     0.03     0.03  5248.55     0  00:00        0.03
  20481                JUNCTION     0.02     0.03  5250.81     0  00:01        0.03
  20482                JUNCTION     0.02     0.02  5253.52     0  00:00        0.02
  20483                JUNCTION     0.09     0.23  5234.73     0  00:00        0.21
  20484                JUNCTION     0.12     0.28  5225.89     0  00:16        0.28
  20485                JUNCTION     0.07     0.22  5224.33     0  00:00        0.15
  20486                JUNCTION     0.17     0.20  5205.78     0  00:00        0.19
  20487                JUNCTION     0.67     0.74  5203.72     0  03:17        0.74
  20488                JUNCTION     0.35     0.40  5208.57     0  03:15        0.40
  20489                JUNCTION     0.37     0.42  5208.58     0  03:15        0.42
  20490                JUNCTION     0.42     0.45  5208.97     0  02:45        0.45
  20491                JUNCTION     0.49     0.52  5209.55     0  02:33        0.52
  20492                JUNCTION     0.11     0.13  5491.47     0  00:00        0.11
  20493                JUNCTION     0.17     0.17  5483.97     0  19:21        0.17
  20494                JUNCTION     0.12     0.12  5481.11     0  20:55        0.12
  20495                JUNCTION     0.16     0.16  5473.47     0  19:35        0.16
  20496                JUNCTION     0.18     0.18  5471.64     0  11:33        0.18
  20497                JUNCTION     0.18     0.19  5469.74     0  00:00        0.18
  20498                JUNCTION     0.20     0.20  5468.13     0  03:23        0.20
  20499                JUNCTION     0.01     0.02  5474.35     0  00:00        0.02
  20500                JUNCTION     0.01     0.02  5472.90     0  00:00        0.02
  20501                JUNCTION     0.01     0.02  5467.66     0  00:00        0.02
  20502                JUNCTION     0.00     0.02  5463.63     0  00:00        0.01
  20503                JUNCTION     0.01     0.02  5456.29     0  00:00        0.02
  20504                JUNCTION     0.02     0.03  5455.59     0  00:06        0.03
  20505                JUNCTION     0.01     0.04  5453.20     0  00:00        0.03
  20506                JUNCTION     0.00     0.02  5459.61     0  00:00        0.01
  20507                JUNCTION     0.01     0.02  5453.29     0  00:00        0.02
  20508                JUNCTION     0.02     0.04  5447.17     0  00:02        0.04
  20509                JUNCTION     0.02     0.05  5442.91     0  00:00        0.05
  20510                JUNCTION     0.01     0.03  5452.76     0  00:00        0.03
  20511                JUNCTION     0.01     0.03  5457.30     0  00:00        0.03
  20512                JUNCTION     0.01     0.02  5454.38     0  00:00        0.01
  20513                JUNCTION     0.01     0.02  5452.82     0  00:00        0.01
  20514                JUNCTION     0.01     0.02  5442.73     0  00:01        0.02
  20515                JUNCTION     0.01     0.03  5444.12     0  00:00        0.03
  20516                JUNCTION     0.01     0.02  5450.81     0  00:00        0.02
  20517                JUNCTION     0.01     0.02  5453.94     0  00:00        0.02
  20518                JUNCTION     0.00     0.01  5459.85     0  00:00        0.01
  20519                JUNCTION     0.01     0.02  5461.22     0  00:00        0.02
  20520                JUNCTION     0.01     0.02  5465.88     0  00:00        0.02
  20521                JUNCTION     0.00     0.02  5470.06     0  00:00        0.01
  20522                JUNCTION     0.03     0.06  5442.42     0  00:05        0.06
  20523                JUNCTION     0.03     0.08  5441.29     0  00:00        0.07
  20524                JUNCTION     0.03     0.08  5439.62     0  00:00        0.08
  20525                JUNCTION     0.03     0.08  5440.18     0  00:00        0.07
  20526                JUNCTION     0.02     0.06  5441.17     0  00:00        0.05
  20527                JUNCTION     0.02     0.05  5442.09     0  00:04        0.05
  20528                JUNCTION     0.02     0.04  5443.66     0  00:00        0.04
  20529                JUNCTION     0.01     0.02  5414.42     0  00:00        0.01
  20530                JUNCTION     0.02     0.02  5410.17     0  00:00        0.02
  20531                JUNCTION     0.03     0.03  5404.86     0  01:22        0.03
  20532                JUNCTION     0.03     0.04  5403.73     0  00:00        0.03
  20533                JUNCTION     0.06     0.07  5401.83     0  00:01        0.06
  20534                JUNCTION     0.06     0.08  5403.03     0  00:00        0.06
  20535                JUNCTION     0.10     0.10  5403.06     0  01:51        0.10
  20536                JUNCTION     0.03     0.04  5404.12     0  00:02        0.04
  20537                JUNCTION     0.02     0.03  5408.52     0  00:00        0.02
  20538                JUNCTION     0.04     0.04  5404.20     0  17:22        0.04
  20539                JUNCTION     0.03     0.04  5404.88     0  00:04        0.04
  20540                JUNCTION     0.02     0.03  5405.15     0  00:00        0.02
  20541                JUNCTION     0.02     0.02  5407.22     0  00:00        0.02
  20542                JUNCTION     0.02     0.03  5407.46     0  00:00        0.02
  20543                JUNCTION     0.01     0.02  5409.23     0  00:00        0.01
  20544                JUNCTION     0.01     0.02  5410.49     0  00:00        0.01
  20545                JUNCTION     0.02     0.02  5409.09     0  00:00        0.02
  20546                JUNCTION     0.01     0.02  5415.62     0  00:00        0.02
  20547                JUNCTION     0.02     0.03  5402.46     0  00:02        0.03
  20548                JUNCTION     0.04     0.04  5400.17     0  00:06        0.04
  20549                JUNCTION     0.04     0.05  5398.96     0  00:00        0.04
  20550                JUNCTION     0.08     0.09  5397.41     0  00:15        0.09
  20551                JUNCTION     0.08     0.08  5396.97     0  00:19        0.08
  20552                JUNCTION     0.02     0.02  5398.04     0  00:00        0.02
  20553                JUNCTION     0.01     0.02  5398.75     0  00:00        0.01
  20554                JUNCTION     0.03     0.04  5393.74     0  00:05        0.04
  20555                JUNCTION     0.02     0.02  5386.05     0  00:00        0.02
  20556                JUNCTION     0.04     0.04  5366.19     0  00:04        0.04
  20557                JUNCTION     0.03     0.03  5335.65     0  00:01        0.03
  20558                JUNCTION     0.01     0.02  5345.53     0  00:00        0.02
  20559                JUNCTION     0.01     0.01  5325.13     0  00:00        0.01
  20560                JUNCTION     0.09     0.24  5265.60     0  00:00        0.23
  20561                JUNCTION     0.04     0.05  5302.64     0  00:00        0.05
  20562                JUNCTION     0.10     0.11  5287.87     0  00:03        0.11
  20563                JUNCTION     0.03     0.03  5396.38     0  00:00        0.03
  20564                JUNCTION     0.02     0.02  5397.68     0  00:09        0.02
  20565                JUNCTION     0.08     0.11  5396.19     0  00:00        0.09
  20566                JUNCTION     0.06     0.07  5398.88     0  00:16        0.07
  20567                JUNCTION     0.03     0.03  5405.94     0  00:05        0.03
  20568                JUNCTION     0.05     0.06  5403.63     0  00:00        0.06
  20569                JUNCTION     0.03     0.05  5403.62     0  00:00        0.04
  20570                JUNCTION     0.02     0.02  5407.53     0  00:01        0.02
  20571                JUNCTION     0.02     0.02  5405.62     0  00:02        0.02
  20572                JUNCTION     0.02     0.02  5409.34     0  00:00        0.02
  20573                JUNCTION     0.01     0.02  5408.31     0  00:00        0.01
  20574                JUNCTION     0.02     0.03  5405.26     0  00:01        0.03
  20575                JUNCTION     0.02     0.02  5407.08     0  00:00        0.02
  20576                JUNCTION     0.02     0.02  5402.88     0  00:00        0.02
  20577                JUNCTION     0.02     0.03  5402.15     0  00:00        0.02
  20578                JUNCTION     0.03     0.03  5401.02     0  00:00        0.03
  20579                JUNCTION     0.01     0.02  5424.10     0  00:00        0.02
  20580                JUNCTION     0.10     0.18  5424.77     0  00:02        0.18
  20581                JUNCTION     0.02     0.03  5421.26     0  00:00        0.02
  20582                JUNCTION     0.02     0.03  5415.74     0  00:00        0.03
  20583                JUNCTION     0.03     0.03  5409.70     0  00:00        0.03
  20584                JUNCTION     0.03     0.04  5408.30     0  00:08        0.04
  20585                JUNCTION     0.04     0.05  5406.05     0  00:00        0.05
  20586                JUNCTION     0.01     0.02  5402.05     0  00:00        0.02
  20587                JUNCTION     0.08     0.09  5392.77     0  00:08        0.08
  20588                JUNCTION     0.07     0.08  5389.49     0  00:11        0.08
  20589                JUNCTION     0.08     0.09  5386.12     0  00:13        0.09
  20590                JUNCTION     0.09     0.09  5384.88     0  00:15        0.09
  20591                JUNCTION     0.06     0.06  5383.38     0  00:17        0.06
  20592                JUNCTION     0.07     0.08  5383.56     0  00:16        0.08
  20593                JUNCTION     0.02     0.02  5410.37     0  00:00        0.02
  20594                JUNCTION     0.04     0.04  5408.53     0  00:09        0.04
  20595                JUNCTION     0.01     0.02  5411.50     0  00:00        0.01
  20596                JUNCTION     0.03     0.04  5410.61     0  00:05        0.04
  20597                JUNCTION     0.02     0.02  5412.68     0  00:00        0.02
  20598                JUNCTION     0.03     0.04  5411.28     0  00:00        0.04
  20599                JUNCTION     0.03     0.03  5411.76     0  00:00        0.03
  20600                JUNCTION     0.02     0.03  5413.01     0  00:01        0.03
  20601                JUNCTION     0.02     0.02  5414.46     0  00:00        0.02
  20602                JUNCTION     0.02     0.03  5406.95     0  00:00        0.03
  20603                JUNCTION     0.02     0.03  5409.21     0  00:04        0.03
  20604                JUNCTION     0.02     0.02  5413.82     0  00:00        0.02
  20605                JUNCTION     0.03     0.04  5403.19     0  00:03        0.04
  20606                JUNCTION     0.04     0.05  5386.87     0  00:00        0.04
  20607                JUNCTION     0.02     0.10  5416.70     0  00:00        0.09
  20608                JUNCTION     0.03     0.12  5413.84     0  00:00        0.12
  20609                JUNCTION     0.03     0.15  5410.00     0  00:00        0.13
  20610                JUNCTION     0.14     0.21  5408.17     0  00:04        0.21
  20611                JUNCTION     0.09     0.17  5411.58     0  00:00        0.15
  20612                JUNCTION     0.11     0.19  5413.54     0  00:00        0.19
  20613                JUNCTION     0.11     0.18  5415.64     0  00:14        0.18
  20614                JUNCTION     0.11     0.19  5415.35     0  00:00        0.19
  20615                JUNCTION     0.11     0.19  5416.77     0  00:12        0.19
  20616                JUNCTION     0.09     0.16  5420.00     0  00:08        0.16
  20617                JUNCTION     0.10     0.18  5422.50     0  00:03        0.17
  20618                JUNCTION     0.09     0.18  5428.69     0  00:00        0.15
  20619                JUNCTION     0.13     0.23  5429.78     0  00:08        0.23
  20620                JUNCTION     0.12     0.23  5430.73     0  00:00        0.22
  20621                JUNCTION     0.15     0.28  5431.32     0  00:03        0.27
  20622                JUNCTION     0.11     0.30  5432.45     0  00:00        0.19
  20623                JUNCTION     0.24     0.32  5432.53     0  00:00        0.31
  20624                JUNCTION     0.01     0.03  5485.61     0  00:00        0.02
  20625                JUNCTION     0.01     0.02  5489.11     0  00:00        0.02
  20626                JUNCTION     0.00     0.01  5493.53     0  00:00        0.00
  20627                JUNCTION     0.00     0.01  5497.25     0  00:00        0.00
  20628                JUNCTION     0.01     0.03  5420.75     0  00:00        0.02
  20629                JUNCTION     0.02     0.03  5418.91     0  00:00        0.03
  20630                JUNCTION     0.00     0.03  5467.58     0  00:00        0.01
  20631                JUNCTION     0.00     0.03  5465.34     0  00:00        0.02
  20632                JUNCTION     0.00     0.03  5454.09     0  00:00        0.02
  20633                JUNCTION     0.01     0.05  5446.02     0  00:00        0.04
  20634                JUNCTION     0.01     0.06  5444.39     0  00:00        0.06
  20635                JUNCTION     0.00     0.04  5443.32     0  00:00        0.02
  20636                JUNCTION     0.01     0.06  5437.21     0  00:00        0.04
  20637                JUNCTION     0.19     0.30  5401.81     0  00:08        0.30
  20638                JUNCTION     0.12     0.17  5415.04     0  00:00        0.15
  20639                JUNCTION     0.12     0.17  5421.04     0  00:00        0.16
  20640                JUNCTION     0.12     0.16  5428.14     0  00:00        0.15
  20641                JUNCTION     0.11     0.17  5436.06     0  00:00        0.14
  20642                JUNCTION     0.14     0.18  5437.65     0  00:04        0.18
  20643                JUNCTION     0.10     0.15  5444.13     0  00:00        0.13
  20644                JUNCTION     0.13     0.16  5448.96     0  00:02        0.16
  20645                JUNCTION     0.11     0.15  5455.22     0  00:00        0.14
  20646                JUNCTION     0.11     0.15  5464.57     0  00:00        0.12
  20647                JUNCTION     0.12     0.15  5466.63     0  00:00        0.14
  20648                JUNCTION     0.04     0.09  5477.81     0  00:03        0.09
  20649                JUNCTION     0.04     0.11  5488.06     0  00:00        0.09
  20650                JUNCTION     0.09     0.12  5394.82     0  00:00        0.10
  20651                JUNCTION     0.03     0.04  5389.59     0  00:00        0.03
  20652                JUNCTION     0.21     0.23  5276.01     0  00:04        0.23
  20653                JUNCTION     0.26     0.27  5270.37     0  00:49        0.27
  20654                JUNCTION     0.27     0.28  5265.24     0  00:52        0.28
  20655                JUNCTION     0.20     0.20  5257.14     0  00:54        0.20
  20656                JUNCTION     0.26     0.27  5243.73     0  00:55        0.27
  20657                JUNCTION     0.25     0.27  5233.50     0  00:59        0.27
  20658                JUNCTION     0.25     0.26  5228.31     0  01:01        0.26
  20659                JUNCTION     0.25     0.26  5222.99     0  01:02        0.26
  20660                JUNCTION     0.31     0.33  5217.63     0  01:04        0.33
  20661                JUNCTION     0.37     0.39  5215.34     0  01:05        0.39
  20662                JUNCTION     0.37     0.39  5214.20     0  02:24        0.39
  20663                JUNCTION     0.52     0.54  5212.96     0  02:26        0.54
  20664                JUNCTION     0.38     0.40  5212.35     0  02:30        0.40
  20665                JUNCTION     0.42     0.44  5211.36     0  02:33        0.44
  20666                JUNCTION     0.43     0.45  5210.65     0  02:36        0.45
  20667                JUNCTION     0.49     0.52  5209.93     0  02:51        0.52
  20668                JUNCTION     0.20     0.24  5272.74     0  01:13        0.24
  20669                JUNCTION     0.20     0.24  5270.31     0  01:15        0.24
  20670                JUNCTION     0.20     0.24  5267.96     0  01:16        0.24
  20671                JUNCTION     0.20     0.23  5264.02     0  01:18        0.23
  20672                JUNCTION     0.21     0.25  5259.55     0  01:19        0.25
  20673                JUNCTION     0.20     0.23  5255.85     0  01:21        0.23
  20674                JUNCTION     0.20     0.24  5252.85     0  01:22        0.24
  20675                JUNCTION     0.19     0.23  5248.23     0  01:23        0.23
  20676                JUNCTION     0.20     0.23  5245.82     0  01:24        0.23
  20677                JUNCTION     0.19     0.23  5241.01     0  01:26        0.23
  20678                JUNCTION     0.19     0.23  5236.23     0  01:27        0.23
  20679                JUNCTION     0.19     0.23  5231.14     0  01:28        0.23
  20680                JUNCTION     0.19     0.22  5224.58     0  01:31        0.22
  20681                JUNCTION     0.19     0.23  5219.78     0  01:32        0.23
  20682                JUNCTION     0.19     0.22  5215.66     0  01:33        0.22
  20683                JUNCTION     0.24     0.29  5211.18     0  01:35        0.29
  20684                JUNCTION     0.24     0.29  5209.45     0  01:36        0.28
  20685                JUNCTION     0.13     0.18  5207.51     0  00:00        0.16
  20686                JUNCTION     0.44     0.48  5201.13     0  01:56        0.48
  20687                JUNCTION     0.40     0.53  5194.85     0  00:00        0.44
  20688                JUNCTION     0.72     0.78  5195.48     0  02:04        0.78
  20689                JUNCTION     0.64     0.71  5195.99     0  02:01        0.71
  20690                JUNCTION     0.01     0.01  5202.14     0  13:41        0.01
  20691                JUNCTION     0.01     0.01  5200.25     0  08:15        0.01
  20692                JUNCTION     0.01     0.01  5199.30     0  00:34        0.01
  20693                JUNCTION     0.01     0.01  5196.87     0  20:02        0.01
  20694                JUNCTION     0.29     0.37  5193.40     0  00:00        0.32
  20695                JUNCTION     0.47     0.51  5191.82     0  02:07        0.51
  20696                JUNCTION     0.49     0.54  5190.94     0  02:08        0.54
  20697                JUNCTION     0.45     0.50  5190.64     0  02:09        0.50
  20698                JUNCTION     0.46     0.50  5189.64     0  02:11        0.50
  20699                JUNCTION     0.47     0.52  5188.38     0  02:12        0.52
  20700                JUNCTION     0.61     0.67  5187.81     0  02:13        0.66
  20701                JUNCTION     0.51     0.58  5187.59     0  00:00        0.55
  20702                JUNCTION     0.41     0.45  5186.42     0  00:00        0.44
  20703                JUNCTION     0.30     0.35  5183.61     0  00:00        0.32
  20704                JUNCTION     0.64     0.69  5177.47     0  02:20        0.69
  20705                JUNCTION     0.38     0.42  5176.16     0  02:22        0.42
  20706                JUNCTION     0.55     0.59  5174.93     0  02:23        0.59
  20707                JUNCTION     0.43     0.46  5173.97     0  02:25        0.46
  20708                JUNCTION     0.73     0.78  5173.70     0  02:27        0.78
  20709                JUNCTION     0.11     0.18  5176.72     0  00:00        0.13
  20710                JUNCTION     0.22     0.25  5177.50     0  00:00        0.24
  20711                JUNCTION     0.22     0.25  5177.57     0  00:24        0.25
  20712                JUNCTION     0.15     0.18  5178.11     0  00:17        0.18
  20713                JUNCTION     0.10     0.14  5183.30     0  00:00        0.12
  20714                JUNCTION     0.12     0.14  5186.26     0  00:10        0.14
  20715                JUNCTION     0.10     0.13  5190.83     0  00:07        0.13
  20716                JUNCTION     0.12     0.16  5192.33     0  00:03        0.16
  20717                JUNCTION     0.10     0.14  5195.53     0  00:01        0.13
  20718                JUNCTION     0.10     0.16  5199.99     0  00:00        0.12
  20719                JUNCTION     0.20     0.24  5200.68     0  00:19        0.24
  20720                JUNCTION     0.03     0.05  5356.06     0  00:04        0.05
  20721                JUNCTION     0.09     0.12  5309.29     0  00:09        0.12
  20722                JUNCTION     0.10     0.13  5305.57     0  00:00        0.13
  20723                JUNCTION     0.10     0.13  5300.97     0  00:00        0.13
  20724                JUNCTION     0.10     0.13  5296.25     0  00:00        0.13
  20725                JUNCTION     0.11     0.14  5291.44     0  00:01        0.13
  20726                JUNCTION     0.11     0.14  5286.97     0  00:03        0.14
  20727                JUNCTION     0.09     0.13  5282.54     0  00:00        0.11
  20728                JUNCTION     0.16     0.18  5271.47     0  00:07        0.18
  20729                JUNCTION     0.16     0.18  5268.34     0  00:11        0.18
  20730                JUNCTION     0.14     0.17  5264.97     0  00:00        0.15
  20731                JUNCTION     0.18     0.19  5253.11     0  00:20        0.19
  20732                JUNCTION     0.15     0.16  5237.72     0  00:27        0.16
  20733                JUNCTION     0.15     0.16  5236.06     0  00:27        0.16
  20734                JUNCTION     0.15     0.16  5232.99     0  00:29        0.16
  20735                JUNCTION     0.15     0.16  5228.49     0  00:30        0.16
  20736                JUNCTION     0.16     0.17  5227.25     0  00:31        0.17
  20737                JUNCTION     0.16     0.17  5223.47     0  00:34        0.17
  20738                JUNCTION     0.17     0.18  5219.49     0  00:36        0.18
  20739                JUNCTION     0.14     0.15  5215.82     0  00:00        0.15
  20740                JUNCTION     0.19     0.19  5207.85     0  00:42        0.19
  20741                JUNCTION     0.19     0.20  5205.55     0  00:44        0.20
  20742                JUNCTION     0.23     0.24  5202.52     0  00:48        0.24
  20743                JUNCTION     0.18     0.20  5200.69     0  00:00        0.18
  20744                JUNCTION     0.18     0.18  5199.63     0  00:00        0.18
  20745                JUNCTION     0.17     0.18  5195.94     0  00:01        0.18
  20746                JUNCTION     0.20     0.20  5190.98     0  00:54        0.20
  20747                JUNCTION     0.14     0.16  5187.02     0  00:00        0.14
  20748                JUNCTION     0.81     0.86  5173.53     0  02:29        0.86
  20749                JUNCTION     0.43     0.62  5173.04     0  00:00        0.46
  20750                JUNCTION     0.59     0.63  5170.41     0  00:01        0.62
  20751                JUNCTION     0.37     0.47  5169.29     0  00:00        0.40
  20752                JUNCTION     0.28     0.33  5162.95     0  00:00        0.30
  20753                JUNCTION     0.52     0.55  5147.66     0  02:36        0.55
  20754                JUNCTION     0.94     1.00  5147.03     0  04:28        1.00
  20755                JUNCTION     0.92     1.07  5146.98     0  00:00        0.97
  20756                JUNCTION     0.76     0.93  5146.77     0  00:00        0.81
  20757                JUNCTION     0.46     0.60  5146.00     0  00:00        0.48
  20758                JUNCTION     0.62     0.70  5143.66     0  00:02        0.66
  20759                JUNCTION     0.50     0.56  5142.76     0  00:00        0.54
  20760                JUNCTION     0.08     0.08  5261.67     0  11:31        0.08
  20761                JUNCTION     0.03     0.04  5261.67     0  00:00        0.03
  20762                JUNCTION     0.03     0.04  5260.14     0  00:00        0.03
  20763                JUNCTION     0.04     0.04  5256.82     0  00:00        0.04
  20764                JUNCTION     0.04     0.05  5253.13     0  00:00        0.04
  20765                JUNCTION     0.05     0.05  5249.20     0  00:01        0.05
  20766                JUNCTION     0.05     0.06  5246.56     0  00:00        0.06
  20767                JUNCTION     0.05     0.07  5244.52     0  00:00        0.06
  20768                JUNCTION     0.20     0.24  5228.72     0  01:29        0.24
  20769                JUNCTION     0.10     0.25  5243.38     0  00:07        0.25
  20770                JUNCTION     0.06     0.06  5323.73     0  00:00        0.06
  20771                JUNCTION     0.04     0.06  5322.40     0  00:00        0.04
  20772                JUNCTION     0.03     0.04  5321.07     0  00:00        0.03
  20773                JUNCTION     0.26     0.26  5319.17     0  07:52        0.26
  20774                JUNCTION     0.06     0.07  5319.16     0  00:00        0.06
  20775                JUNCTION     0.06     0.06  5318.70     0  00:00        0.06
  20776                JUNCTION     0.10     0.10  5315.04     0  17:41        0.10
  20777                JUNCTION     0.12     0.12  5314.95     0  18:41        0.12
  20778                JUNCTION     0.03     0.04  5317.01     0  00:00        0.03
  20779                JUNCTION     0.02     0.02  5321.45     0  00:00        0.02
  20780                JUNCTION     0.03     0.06  5317.83     0  00:01        0.05
  20781                JUNCTION     0.01     0.02  5328.75     0  00:00        0.01
  20782                JUNCTION     0.09     0.11  5324.45     0  00:00        0.10
  20783                JUNCTION     0.02     0.02  5320.43     0  00:05        0.02
  20784                JUNCTION     0.10     0.22  5242.44     0  00:10        0.22
  20785                JUNCTION     0.03     0.03  5249.55     0  00:02        0.03
  20786                JUNCTION     0.03     0.04  5246.31     0  00:00        0.03
  20787                JUNCTION     0.02     0.02  5252.57     0  00:00        0.02
  20788                JUNCTION     0.01     0.02  5466.09     0  00:00        0.02
  20789                JUNCTION     0.04     0.08  5464.79     0  00:30        0.08
  20790                JUNCTION     0.04     0.10  5463.67     0  00:00        0.09
  20791                JUNCTION     0.04     0.10  5462.87     0  00:00        0.10
  20792                JUNCTION     0.01     0.05  5459.04     0  00:00        0.05
  20793                JUNCTION     0.04     0.07  5458.54     0  00:22        0.07
  20794                JUNCTION     0.04     0.07  5457.59     0  00:32        0.07
  20795                JUNCTION     0.05     0.09  5455.29     0  00:48        0.09
  20796                JUNCTION     0.03     0.04  5448.13     0  01:42        0.04
  20797                JUNCTION     0.06     0.09  5447.61     0  01:11        0.09
  20798                JUNCTION     0.02     0.06  5454.46     0  00:00        0.04
  20799                JUNCTION     0.03     0.07  5449.96     0  00:04        0.07
  20800                JUNCTION     0.06     0.08  5445.31     0  00:00        0.08
  20801                JUNCTION     0.06     0.09  5444.03     0  00:01        0.09
  20802                JUNCTION     0.06     0.09  5442.11     0  00:00        0.09
  20803                JUNCTION     0.08     0.11  5439.21     0  00:18        0.11
  20804                JUNCTION     0.05     0.08  5436.78     0  00:01        0.08
  20805                JUNCTION     0.38     0.48  5435.06     0  00:29        0.48
  20806                JUNCTION     0.14     0.27  5435.06     0  00:00        0.21
  20807                JUNCTION     0.42     0.50  5434.51     0  00:59        0.50
  20808                JUNCTION     0.14     0.24  5434.51     0  00:00        0.20
  20809                JUNCTION     0.10     0.20  5433.60     0  00:00        0.14
  20810                JUNCTION     0.10     0.15  5433.32     0  00:01        0.14
  20811                JUNCTION     0.13     0.18  5433.06     0  00:03        0.18
  20812                JUNCTION     0.11     0.15  5432.38     0  01:04        0.15
  20813                JUNCTION     0.09     0.14  5423.53     0  00:00        0.12
  20814                JUNCTION     0.12     0.16  5417.03     0  00:02        0.14
  20815                JUNCTION     0.10     0.15  5413.49     0  00:00        0.13
  20816                JUNCTION     0.09     0.14  5406.37     0  00:00        0.13
  20817                JUNCTION     0.11     0.15  5397.55     0  00:03        0.15
  20818                JUNCTION     0.10     0.15  5392.61     0  00:00        0.14
  20819                JUNCTION     0.11     0.14  5385.72     0  00:00        0.14
  20820                JUNCTION     0.11     0.15  5377.77     0  00:01        0.15
  20821                JUNCTION     0.11     0.15  5370.63     0  00:00        0.15
  20822                JUNCTION     0.13     0.17  5364.33     0  00:06        0.17
  20823                JUNCTION     0.12     0.16  5360.17     0  00:00        0.15
  20824                JUNCTION     0.13     0.17  5357.70     0  00:01        0.17
  20825                JUNCTION     0.02     0.05  5456.04     0  00:00        0.05
  20826                JUNCTION     0.02     0.05  5451.25     0  00:00        0.04
  20827                JUNCTION     0.03     0.05  5441.75     0  00:02        0.05
  20828                JUNCTION     0.03     0.06  5439.33     0  00:00        0.06
  20829                JUNCTION     0.03     0.06  5433.90     0  00:00        0.06
  20830                JUNCTION     0.04     0.06  5427.57     0  00:02        0.06
  20831                JUNCTION     0.04     0.06  5422.42     0  00:00        0.06
  20832                JUNCTION     0.04     0.06  5416.22     0  00:01        0.06
  20833                JUNCTION     0.04     0.07  5400.57     0  00:06        0.07
  20834                JUNCTION     0.04     0.07  5390.02     0  00:00        0.06
  20835                JUNCTION     0.05     0.07  5377.49     0  00:04        0.07
  20836                JUNCTION     0.01     0.02  5289.93     0  00:00        0.01
  20837                JUNCTION     0.02     0.02  5282.67     0  00:02        0.02
  20838                JUNCTION     0.02     0.03  5277.60     0  00:00        0.02
  20839                JUNCTION     0.03     0.03  5273.48     0  00:00        0.03
  20840                JUNCTION     0.03     0.04  5271.73     0  00:00        0.03
  20841                JUNCTION     0.02     0.02  5393.73     0  00:00        0.02
  20842                JUNCTION     0.02     0.02  5391.83     0  00:00        0.02
  20843                JUNCTION     0.02     0.03  5389.79     0  00:00        0.02
  20844                JUNCTION     0.01     0.02  5388.96     0  00:00        0.01
  20845                JUNCTION     0.51     0.53  5387.55     0  14:06        0.53
  20846                JUNCTION     0.01     0.02  5387.90     0  00:00        0.02
  20847                JUNCTION     0.04     0.04  5387.55     0  11:55        0.04
  20848                JUNCTION     0.02     0.02  5385.09     0  06:59        0.02
  20849                JUNCTION     0.07     0.07  5381.43     0  15:58        0.07
  20850                JUNCTION     0.01     0.07  5435.42     0  00:00        0.05
  20851                JUNCTION     0.01     0.07  5434.60     0  00:00        0.06
  20852                JUNCTION     0.01     0.07  5430.99     0  00:00        0.05
  20853                JUNCTION     0.01     0.07  5423.70     0  00:00        0.06
  20854                JUNCTION     0.04     0.12  5416.84     0  00:00        0.11
  20855                JUNCTION     0.12     0.19  5400.19     0  00:00        0.17
  20856                JUNCTION     0.92     1.89  5401.08     0  00:12        0.98
  20857                JUNCTION     0.07     0.07  5400.43     0  00:02        0.07
  20858                JUNCTION     1.92     2.13  5400.32     0  00:13        1.98
  20859                JUNCTION     0.09     0.11  5393.28     0  00:05        0.11
  20860                JUNCTION     0.03     0.04  5389.25     0  00:00        0.04
  20861                JUNCTION     0.02     0.04  5390.73     0  00:00        0.03
  20862                JUNCTION     0.28     0.29  5390.72     0  21:57        0.29
  20863                JUNCTION     0.07     0.07  5379.21     0  00:23        0.07
  20864                JUNCTION     0.07     0.07  5377.87     0  00:29        0.07
  20865                JUNCTION     0.01     0.01  5382.38     0  00:00        0.01
  20866                JUNCTION     0.04     0.05  5367.90     0  00:16        0.05
  20867                JUNCTION     0.04     0.04  5369.27     0  00:13        0.04
  20868                JUNCTION     0.03     0.04  5370.77     0  00:05        0.04
  20869                JUNCTION     0.02     0.03  5380.74     0  00:00        0.03
  20870                JUNCTION     0.03     0.03  5379.90     0  00:03        0.03
  20871                JUNCTION     0.02     0.03  5377.15     0  00:00        0.02
  20872                JUNCTION     0.02     0.03  5372.13     0  00:04        0.03
  20873                JUNCTION     0.01     0.02  5373.33     0  00:00        0.02
  20874                JUNCTION     0.01     0.02  5371.53     0  00:00        0.02
  20875                JUNCTION     0.04     0.05  5381.18     0  00:16        0.05
  20876                JUNCTION     0.01     0.02  5376.44     0  00:00        0.01
  20877                JUNCTION     0.03     0.03  5383.07     0  00:04        0.03
  20878                JUNCTION     0.02     0.02  5386.94     0  00:00        0.02
  20879                JUNCTION     0.02     0.03  5379.71     0  00:00        0.03
  20880                JUNCTION     0.03     0.03  5380.65     0  00:07        0.03
  20881                JUNCTION     0.01     0.02  5387.03     0  00:00        0.02
  20882                JUNCTION     0.01     0.02  5301.23     0  00:00        0.02
  20883                JUNCTION     0.19     0.23  5309.84     0  00:01        0.22
  20884                JUNCTION     0.11     0.11  5309.07     0  16:09        0.11
  20885                JUNCTION     0.10     0.11  5307.64     0  00:00        0.10
  20886                JUNCTION     0.04     0.05  5354.41     0  00:01        0.04
  20887                JUNCTION     0.03     0.05  5357.74     0  00:00        0.03
  20888                JUNCTION     0.06     0.06  5357.78     0  00:13        0.06
  20889                JUNCTION     0.03     0.03  5358.70     0  00:00        0.03
  20890                JUNCTION     0.02     0.02  5362.67     0  00:03        0.02
  20891                JUNCTION     0.01     0.02  5368.74     0  00:00        0.02
  20892                JUNCTION     0.01     0.02  5374.50     0  00:00        0.02
  20893                JUNCTION     0.02     0.02  5390.81     0  00:00        0.02
  20894                JUNCTION     0.03     0.03  5348.83     0  00:00        0.03
  20895                JUNCTION     0.01     0.01  5360.29     0  00:00        0.01
  20896                JUNCTION     0.04     0.04  5357.73     0  02:03        0.04
  20897                JUNCTION     0.03     0.05  5357.36     0  00:00        0.04
  20898                JUNCTION     0.06     0.06  5355.87     0  00:17        0.06
  20899                JUNCTION     0.01     0.02  5361.53     0  00:00        0.01
  20900                JUNCTION     0.01     0.02  5365.22     0  00:00        0.01
  20901                JUNCTION     0.18     0.30  5258.98     0  00:00        0.23
  20902                JUNCTION     0.21     0.31  5256.11     0  00:00        0.27
  20903                JUNCTION     0.23     0.33  5255.68     0  00:01        0.28
  20904                JUNCTION     0.21     0.30  5254.61     0  00:00        0.27
  20905                JUNCTION     0.00     0.01  5467.31     0  00:00        0.01
  20906                JUNCTION     0.03     0.06  5452.38     0  00:01        0.05
  20907                JUNCTION     0.04     0.09  5465.99     0  00:15        0.09
  20908                JUNCTION     0.03     0.07  5466.93     0  00:05        0.07
  20909                JUNCTION     0.00     0.01  5467.59     0  00:00        0.01
  20910                JUNCTION     0.01     0.01  5467.86     0  00:00        0.01
  20911                JUNCTION     0.02     0.07  5481.25     0  00:00        0.05
  20912                JUNCTION     0.04     0.08  5482.89     0  00:13        0.08
[...]
  22240.1                 1.26   0.00  0.00  0.00  1.00  0.00  0.00  0.00  1.00  0.00
  22241.1                 1.00   0.00  0.00  0.00  1.00  0.00  0.00  0.00  1.00  0.00
  22242.1                 1.00   0.00  0.00  0.00  1.00  0.00  0.00  0.00  1.00  0.00
  22243.1                 1.00   0.00  0.00  0.00  1.00  0.00  0.00  0.00  1.00  0.00
  22244.1                 1.00   0.00  0.00  0.00  1.00  0.00  0.00  0.00  1.00  0.00
  22245.1                 1.00   0.00  0.00  0.00  0.01  0.99  0.00  0.00  1.00  0.00
  22246.1                 1.00   0.00  0.00  0.00  0.00  1.00  0.00  0.00  1.00  0.00
  22247.1                 1.00   0.00  0.00  0.00  0.99  0.01  0.00  0.00  1.00  0.00
  22248.1                 1.00   0.00  0.00  0.00  1.00  0.00  0.00  0.00  1.00  0.00
  22249.1                 1.00   0.00  0.00  0.00  0.01  0.99  0.00  0.00  1.00  0.00
  22250.1                 1.00   0.00  0.00  0.00  0.00  1.00  0.00  0.00  0.00  0.00
  22251.1                 1.00   0.00  0.00  0.00  1.00  0.00  0.00  0.00  1.00  0.00
  22252.1                 1.00   0.00  0.00  0.00  1.00  0.00  0.00  0.00  1.00  0.00
  22253.1                 1.00   0.00  0.00  0.00  1.00  0.00  0.00  0.00  1.00  0.00
  22254.1                 1.00   0.00  0.00  0.00  1.00  0.00  0.00  0.00  1.00  0.00
  22255.1                 1.00   0.00  0.00  0.00  0.00  1.00  0.00  0.00  0.00  0.00
  22256.1                 1.00   0.00  0.00  0.00  1.00  0.00  0.00  0.00  1.00  0.00
  22257.1                 1.00   0.00  0.00  0.00  1.00  0.00  0.00  0.00  0.00  0.00
  22258.1                 1.00   0.00  0.00  0.00  1.00  0.00  0.00  0.00  1.00  0.00
  22259.1                 1.00   0.00  0.00  0.00  1.00  0.00  0.00  0.00  1.00  0.00
  22260.1                 1.00   0.00  0.00  0.00  1.00  0.00  0.00  0.00  1.00  0.00
  22261.1                 1.00   0.00  0.00  0.00  1.00  0.00  0.00  0.00  0.00  0.00
  22262.1                 1.00   0.00  0.00  0.00  1.00  0.00  0.00  0.00  1.00  0.00
  22263.1                 1.00   0.00  0.00  0.00  1.00  0.00  0.00  0.00  1.00  0.00
  22264.1                 1.00   0.00  0.00  0.00  1.00  0.00  0.00  0.00  1.00  0.00
  22265.1                 1.00   0.00  0.00  0.00  1.00  0.00  0.00  0.00  0.00  0.00
  22266.1                 1.00   0.00  0.00  0.00  1.00  0.00  0.00  0.00  1.00  0.00
  22267.1                 1.00   0.00  0.00  0.00  1.00  0.00  0.00  0.00  0.98  0.00
  22268.1                 1.00   0.00  0.00  0.00  1.00  0.00  0.00  0.00  0.00  0.00
  22269.1                 1.00   0.00  0.00  0.00  1.00  0.00  0.00  0.00  1.00  0.00
  22270.1                 1.00   0.00  0.00  0.00  1.00  0.00  0.00  0.00  1.00  0.00
  22271.1                 1.00   0.00  0.00  0.00  1.00  0.00  0.00  0.00  0.00  0.00
  22272.1                 1.00   0.00  0.00  0.00  1.00  0.00  0.00  0.00  0.01  0.00
  22273.1                 1.00   0.00  0.00  0.00  1.00  0.00  0.00  0.00  1.00  0.00
  22274.1                 1.00   0.00  0.00  0.00  0.00  1.00  0.00  0.00  0.00  0.00
  22275.1                 1.00   0.00  0.00  0.00  1.00  0.00  0.00  0.00  1.00  0.00
  22276.1                 1.00   0.00  0.00  0.00  1.00  0.00  0.00  0.00  1.00  0.00
  22277.1                 1.00   0.00  0.00  0.00  1.00  0.00  0.00  0.00  1.00  0.00
  22278.1                 1.00   0.00  0.00  0.00  1.00  0.00  0.00  0.00  0.00  0.00
  22279.1                 1.00   0.00  0.00  0.00  0.00  1.00  0.00  0.00  0.00  0.00
  22280.1                 1.00   0.00  0.00  0.00  0.00  1.00  0.00  0.00  0.00  0.00
  22281.1                 1.00   0.00  0.00  0.00  0.00  1.00  0.00  0.00  1.00  0.00
  22284.1                 1.00   0.00  0.00  0.00  1.00  0.00  0.00  0.00  0.00  0.00
  22285.1                 1.00   0.00  0.00  0.00  1.00  0.00  0.00  0.00  1.00  0.00
  22286.1                 1.00   0.00  0.00  0.00  0.99  0.01  0.00  0.00  1.00  0.00
  22287.1                 1.00   0.00  0.00  0.00  0.00  1.00  0.00  0.00  1.00  0.00
  22288.1                 1.00   0.00  0.00  0.00  0.00  1.00  0.00  0.00  0.00  0.00
  22289.1                 1.00   0.00  0.00  0.00  1.00  0.00  0.00  0.00  0.00  0.00
  22290.1                 1.00   0.00  0.00  0.00  1.00  0.00  0.00  0.00  0.76  0.00
  22291.1                 1.00   0.00  0.00  0.00  1.00  0.00  0.00  0.00  1.00  0.00
  22292.1                 1.00   0.00  0.00  0.00  1.00  0.00  0.00  0.00  1.00  0.00
  22293.1                 1.00   0.00  0.00  0.00  1.00  0.00  0.00  0.00  1.00  0.00
  22294                   1.00   0.00  0.00  0.00  0.00  1.00  0.00  0.00  1.00  0.00
  22295.1                 1.00   0.00  0.00  0.00  1.00  0.00  0.00  0.00  1.00  0.00
  22296.1                 1.00   0.00  0.00  0.00  1.00  0.00  0.00  0.00  1.00  0.00
  22297.1                 1.00   0.00  0.00  0.00  1.00  0.00  0.00  0.00  1.00  0.00
  22298.1                 1.00   0.00  0.00  0.00  1.00  0.00  0.00  0.00  1.00  0.00
  22299.1                 1.00   0.00  0.00  0.00  1.00  0.00  0.00  0.00  1.00  0.00
  22300.1                 1.00   0.00  0.00  0.00  1.00  0.00  0.00  0.00  0.00  0.00
  22301.1                 1.00   0.00  0.00  0.00  1.00  0.00  0.00  0.00  1.00  0.00
  22302.1                 1.00   0.00  0.00  0.00  1.00  0.00  0.00  0.00  0.98  0.00
  22303.1                 1.00   0.00  0.00  0.00  0.99  0.01  0.00  0.00  1.00  0.00
  22304.1                 1.00   0.00  0.00  0.00  0.00  1.00  0.00  0.00  1.00  0.00
  22306.1                 1.00   0.00  0.00  0.00  1.00  0.00  0.00  0.00  1.00  0.00
  22307.1                 1.00   0.00  0.00  0.00  1.00  0.00  0.00  0.00  1.00  0.00
  22308.1                 1.00   0.00  0.00  0.00  1.00  0.00  0.00  0.00  0.99  0.00
  22309.1                 1.00   0.00  0.00  0.00  1.00  0.00  0.00  0.00  0.94  0.00
  22310.1                 1.00   0.00  0.00  0.00  0.98  0.02  0.00  0.00  0.00  0.00
  22311.1                 1.00   0.00  0.00  0.00  1.00  0.00  0.00  0.00  1.00  0.00
  22312.1                 1.00   0.00  0.00  0.00  0.99  0.01  0.00  0.00  0.00  0.00
  22313.1                 1.00   0.00  0.00  0.00  0.00  1.00  0.00  0.00  1.00  0.00
  22314.1                 1.00   0.00  0.00  0.00  0.98  0.02  0.00  0.00  1.00  0.00
  22315.1                 1.00   0.00  0.00  0.00  0.99  0.01  0.00  0.00  1.00  0.00
  22316.1                 1.00   0.00  0.00  0.00  0.99  0.01  0.00  0.00  0.09  0.00
  22317.1                 1.00   0.00  0.00  0.00  0.92  0.08  0.00  0.00  1.00  0.00
  22318.1                 1.00   0.00  0.00  0.00  1.00  0.00  0.00  0.00  0.99  0.00
  22319.1                 1.00   0.00  0.00  0.00  1.00  0.00  0.00  0.00  0.46  0.00
  22320.1                 1.00   0.00  0.00  0.00  1.00  0.00  0.00  0.00  0.97  0.00
  22321.1                 1.00   0.00  0.00  0.00  1.00  0.00  0.00  0.00  1.00  0.00
  22322.1                 1.00   0.00  0.00  0.00  1.00  0.00  0.00  0.00  1.00  0.00
  22323.1                 1.00   0.00  0.00  0.00  1.00  0.00  0.00  0.00  0.02  0.00
  22324.1                 1.00   0.00  0.00  0.00  0.00  1.00  0.00  0.00  1.00  0.00
  22325.1                 1.00   0.00  0.00  0.00  0.00  1.00  0.00  0.00  1.00  0.00
  22326.1                 1.00   0.00  0.00  0.00  0.01  0.99  0.00  0.00  1.00  0.00
  22327.1                 1.00   0.00  0.00  0.00  1.00  0.00  0.00  0.00  1.00  0.00
  22328.1                 1.00   0.00  0.00  0.00  0.02  0.98  0.00  0.00  1.00  0.00
  22329.1                 1.00   0.00  0.00  0.00  0.00  1.00  0.00  0.00  1.00  0.00
  22330.1                 1.00   0.00  0.00  0.00  1.00  0.00  0.00  0.00  1.00  0.00
  22331.1                 1.00   0.00  0.00  0.00  0.88  0.12  0.00  0.00  0.00  0.00
  22332.1                 1.00   0.00  0.00  0.00  1.00  0.00  0.00  0.00  1.00  0.00
  22333.1                 1.00   0.00  0.00  0.00  0.00  1.00  0.00  0.00  1.00  0.00
  22334.1                 1.00   0.00  0.00  0.00  0.00  1.00  0.00  0.00  1.00  0.00
  22335.1                 1.00   0.00  0.00  0.00  1.00  0.00  0.00  0.00  1.00  0.00
  22336.1                 1.00   0.00  0.00  0.00  1.00  0.00  0.00  0.00  1.00  0.00
  22337.1                 1.00   0.00  0.00  0.00  1.00  0.00  0.00  0.00  1.00  0.00
  22339.1                 1.00   0.00  0.00  0.00  1.00  0.00  0.00  0.00  1.00  0.00
  22340.1                 1.00   0.00  0.00  0.00  1.00  0.00  0.00  0.00  1.00  0.00
  22341.1                 1.00   0.00  0.00  0.00  1.00  0.00  0.00  0.00  1.00  0.00
  22342.1                 1.00   0.00  0.00  0.00  1.00  0.00  0.00  0.00  1.00  0.00
  22343.1                 1.00   0.00  0.00  0.00  1.00  0.00  0.00  0.00  1.00  0.00
  22344.1                 1.00   0.00  0.00  0.00  1.00  0.00  0.00  0.00  1.00  0.00
  22345.1                 1.00   0.00  0.00  0.00  1.00  0.00  0.00  0.00  1.00  0.00
  22346.1                 1.00   0.00  0.00  0.00  1.00  0.00  0.00  0.00  1.00  0.00
  22347.1                 1.00   0.00  0.00  0.00  1.00  0.00  0.00  0.00  1.00  0.00
  22348.1                 1.00   0.00  0.00  0.00  1.00  0.00  0.00  0.00  1.00  0.00
  22349.1                 1.00   0.00  0.00  0.00  1.00  0.00  0.00  0.00  1.00  0.00
  22350.1                 1.00   0.00  0.00  0.00  1.00  0.00  0.00  0.00  1.00  0.00
  22351.1                 1.00   0.00  0.00  0.00  1.00  0.00  0.00  0.00  1.00  0.00
  22352.1                 1.00   0.00  0.00  0.00  0.00  1.00  0.00  0.00  1.00  0.00
  22353.1                 1.00   0.00  0.00  0.00  1.00  0.00  0.00  0.00  0.99  0.00
  22354.1                 1.00   0.00  0.00  0.00  1.00  0.00  0.00  0.00  1.00  0.00
  22355.1                 1.00   0.00  0.00  0.00  1.00  0.00  0.00  0.00  0.00  0.00
  22356.1                 1.00   0.00  0.00  0.00  0.00  1.00  0.00  0.00  1.00  0.00
  22357.1                 1.00   0.00  0.00  0.00  1.00  0.00  0.00  0.00  1.00  0.00
  22358.1                 1.00   0.00  0.00  0.00  1.00  0.00  0.00  0.00  1.00  0.00
  22359.1                 1.00   0.00  0.00  0.00  1.00  0.00  0.00  0.00  1.00  0.00
  22360.1                 1.00   0.00  0.00  0.00  0.00  1.00  0.00  0.00  1.00  0.00
  22362.1                 1.00   0.00  0.00  0.00  1.00  0.00  0.00  0.00  1.00  0.00
  22363.1                 1.00   0.00  0.00  0.00  1.00  0.00  0.00  0.00  1.00  0.00
  22364.1                 1.00   0.00  0.00  0.00  1.00  0.00  0.00  0.00  1.00  0.00
  22365.1                 1.00   0.00  0.00  0.00  1.00  0.00  0.00  0.00  1.00  0.00
  22366.1                 1.00   0.00  0.00  0.00  1.00  0.00  0.00  0.00  0.00  0.00
  22367.1                 1.00   0.00  0.00  0.00  1.00  0.00  0.00  0.00  1.00  0.00
  22368.1                 1.00   0.00  0.00  0.00  1.00  0.00  0.00  0.00  1.00  0.00
  22371.1                 1.00   0.00  0.00  0.00  0.00  1.00  0.00  0.00  0.00  0.00
  22372.1                 1.00   0.00  0.00  0.00  0.99  0.01  0.00  0.00  0.99  0.00
  22373.1                 1.00   0.00  0.00  0.00  1.00  0.00  0.00  0.00  1.00  0.00
  22374.1                 1.00   0.00  0.00  0.00  0.00  1.00  0.00  0.00  1.00  0.00
  22375.1                 1.00   0.00  0.00  0.00  0.00  1.00  0.00  0.00  0.98  0.00
  22377.1                 1.00   0.00  0.00  0.00  1.00  0.00  0.00  0.00  1.00  0.00
  22378.1                 1.00   0.00  0.00  0.00  1.00  0.00  0.00  0.00  1.00  0.00
  22380.1                 1.00   0.00  0.00  0.00  1.00  0.00  0.00  0.00  1.00  0.00
  22381.1                 1.00   0.00  0.00  0.00  1.00  0.00  0.00  0.00  1.00  0.00
  22463.1                 1.00   0.00  0.00  0.00  0.00  1.00  0.00  0.00  1.00  0.00
  22466.1                 1.00   0.00  0.00  0.00  0.00  1.00  0.00  0.00  0.06  0.00
  22472.1                 1.00   0.00  0.00  0.00  1.00  0.00  0.00  0.00  1.00  0.00
  22480.1                 1.00   0.00  0.00  0.00  1.00  0.00  0.00  0.00  1.00  0.00
  22482.1                 1.00   0.00  0.00  0.00  0.00  1.00  0.00  0.00  1.00  0.00
  22483.1                 1.00   0.00  0.00  0.00  0.00  1.00  0.00  0.00  1.00  0.00
  22484.1                 1.00   0.00  0.00  0.00  0.00  1.00  0.00  0.00  1.00  0.00
  22488.1                 1.00   0.00  0.00  0.00  1.00  0.00  0.00  0.00  1.00  0.00
  22489.1                 1.00   0.00  0.00  0.00  1.00  0.00  0.00  0.00  1.00  0.00
  22490.1                 1.00   0.00  0.00  0.00  0.00  1.00  0.00  0.00  1.00  0.00
  22493.1                 1.00   0.00  0.00  0.00  0.00  1.00  0.00  0.00  0.00  0.00
  22494.1                 1.20   0.00  0.00  0.00  1.00  0.00  0.00  0.00  1.00  0.00
  22495.1                 1.00   0.00  0.00  0.00  1.00  0.00  0.00  0.00  1.00  0.00
  22498.1                 1.00   0.00  0.00  0.00  1.00  0.00  0.00  0.00  1.00  0.00
  22500.1                 1.00   0.00  0.00  0.00  1.00  0.00  0.00  0.00  1.00  0.00
  22501.1                 2.38   0.00  0.00  0.00  1.00  0.00  0.00  0.00  1.00  0.00
  22502.1                 4.72   0.00  0.00  0.00  0.00  1.00  0.00  0.00  0.00  0.00
  22503.1                 8.17   0.00  0.00  0.00  0.00  1.00  0.00  0.00  1.00  0.00
  22504.1                 1.00   0.00  0.00  0.00  0.00  1.00  0.00  0.00  1.00  0.00
  22513.1                 1.00   0.00  0.00  0.00  1.00  0.00  0.00  0.00  1.00  0.00
  22514.1                 1.00   0.00  0.00  0.00  1.00  0.00  0.00  0.00  1.00  0.00
  22519.1                 1.00   0.00  0.00  0.00  0.84  0.16  0.00  0.00  1.00  0.00
  22521.1                 1.00   0.00  0.00  0.00  0.00  1.00  0.00  0.00  1.00  0.00
  22522.1                 1.00   0.00  0.00  0.00  1.00  0.00  0.00  0.00  1.00  0.00
  22523.1                 1.00   0.00  0.00  0.00  1.00  0.00  0.00  0.00  0.01  0.00
  22524.1                 1.00   0.00  0.00  0.00  1.00  0.00  0.00  0.00  1.00  0.00
  22525.1                 1.00   0.00  0.00  0.00  1.00  0.00  0.00  0.00  1.00  0.00
  22526.1                 1.00   0.00  0.00  0.00  1.00  0.00  0.00  0.00  1.00  0.00
  22529.1                 1.00   0.00  0.00  0.00  0.00  1.00  0.00  0.00  0.98  0.00
  22530.1                 1.00   0.00  0.00  0.00  1.00  0.00  0.00  0.00  1.00  0.00
  22531.1                 1.00   0.00  0.00  0.00  1.00  0.00  0.00  0.00  1.00  0.00
  22532.1                 1.00   0.00  0.00  0.00  1.00  0.00  0.00  0.00  0.98  0.00
  22533.1                 1.00   0.00  0.00  0.00  0.99  0.01  0.00  0.00  0.99  0.00
  22534.1                 1.00   0.00  0.00  0.00  1.00  0.00  0.00  0.00  0.71  0.00
  22535.1                 1.00   0.00  0.00  0.00  0.99  0.01  0.00  0.00  0.99  0.00
  22536.1                 1.00   0.00  0.00  0.00  0.98  0.02  0.00  0.00  0.98  0.00
  22537.1                 2.05   0.00  0.00  0.00  0.87  0.13  0.00  0.00  1.00  0.00
  22538.1                 1.00   0.00  0.00  0.00  1.00  0.00  0.00  0.00  1.00  0.00
  22539.1                 1.00   0.00  0.00  0.00  1.00  0.00  0.00  0.00  1.00  0.00
  22540.1                 1.00   0.00  0.00  0.00  1.00  0.00  0.00  0.00  1.00  0.00
  22541.1                 1.00   0.00  0.00  0.00  1.00  0.00  0.00  0.00  1.00  0.00
  22542.1                 1.00   0.00  0.00  0.00  1.00  0.00  0.00  0.00  1.00  0.00
  22543.1                 1.00   0.00  0.00  0.00  0.99  0.01  0.00  0.00  0.00  0.00
  22544.1                 1.00   0.00  0.00  0.00  1.00  0.00  0.00  0.00  0.00  0.00
  22545.1                 1.00   0.00  0.00  0.00  0.13  0.87  0.00  0.00  0.98  0.00
  22546.1                 1.00   0.00  0.00  0.00  0.64  0.36  0.00  0.00  1.00  0.00
  22547.1                 1.00   0.00  0.00  0.00  0.23  0.77  0.00  0.00  1.00  0.00
  22548.1                 1.00   0.00  0.00  0.00  0.00  1.00  0.00  0.00  0.00  0.00
  22613.1                 1.00   0.00  0.00  0.00  1.00  0.00  0.00  0.00  1.00  0.00
  407.1                   1.00   0.00  0.00  0.00  1.00  0.00  0.00  0.00  0.00  0.00
  F21189.1               24.95   0.00  0.00  0.00  1.00  0.00  0.00  0.00  1.00  0.00
  F21581.1               20.48   0.00  0.00  0.00  1.00  0.00  0.00  0.00  1.00  0.00
  F21780.1                1.00   0.00  0.86  0.00  0.13  0.02  0.00  0.00  1.00  0.00
  F22222.1                1.00   0.00  0.00  0.00  0.00  1.00  0.00  0.00  1.00  0.00
  F22549.1               15.73   0.00  0.00  0.00  1.00  0.00  0.00  0.00  1.00  0.00
  P20975.1                1.00   0.00  0.00  0.00  1.00  0.00  0.00  0.00  0.00  0.00
  P22549.1                1.00   0.00  0.00  0.00  1.00  0.00  0.00  0.00  0.48  0.00
  PUMP1.1                 1.00   0.00  0.00  0.00  0.99  0.01  0.00  0.00  0.00  0.00
  PUMP2.1                 1.00   0.00  0.00  0.00  1.00  0.00  0.00  0.00  0.00  0.00
  
  
  *************************
  Conduit Surcharge Summary
  *************************
  
  ----------------------------------------------------------------------------
                                                           Hours        Hours 
                         --------- Hours Full --------   Above Full   Capacity
  Conduit                Both Ends  Upstream  Dnstream   Normal Flow   Limited
  ----------------------------------------------------------------------------
  20690.1                     0.01      0.01      4.67      0.01         0.01
  20856.1                    23.79     23.79     23.92      0.01         0.01
  20857.1                     0.01      0.01     23.79      0.01         0.01
  20858.1                     0.01      0.01     23.92      0.01         0.01
  20975.1                     0.01      0.01     24.00      0.01         0.01
  21330.1                     0.01      0.01     24.00      0.01         0.01
  21331.1                     0.01      0.01      0.01     24.00         0.01
  21780.1                    23.94     23.94     24.00      0.18         0.05
  21781.1                     0.01      0.01     23.91      0.01         0.01
  21944.1                     0.01      0.01     23.20      0.01         0.01
  21944.2                     0.01      0.01     24.00      0.01         0.01
  22072.1                     0.01      0.01     24.00      0.01         0.01
  22073.1                     0.01      0.01     24.00      0.01         0.01
  F21189.1                    0.01      0.01     24.00      0.01         0.01
  F21581.1                    0.01      0.01     24.00      0.01         0.01
  F22549.1                    0.01      0.01     24.00      0.01         0.01
  P22549.1                    0.01      0.01     24.00      0.01         0.01
  PUMP1.1                     0.26      0.26     23.98      0.01         0.01
  PUMP2.1                     0.01      0.01     23.40      8.12         0.01
  
  
  ***************
  Pumping Summary
  ***************
  
  ---------------------------------------------------------------------------------------------------------
                                                  Min       Avg       Max     Total     Power    % Time Off
                        Percent   Number of      Flow      Flow      Flow    Volume     Usage    Pump Curve
  Pump                 Utilized   Start-Ups       GPM       GPM       GPM  10^6 gal     Kw-hr    Low   High
  ---------------------------------------------------------------------------------------------------------
  P20975                   0.00           1      0.00     12.00     12.00     0.000      0.00    0.0  100.0
  P21189                  41.67           1      0.00      2.00      2.00     0.001      0.02    0.0  100.0
  P21581.1                 1.70           3      0.00    759.40   1100.00     0.018      1.59    0.0    3.7
  P21780                   1.15           1      0.00     77.00     77.00     0.001      0.03    0.0  100.0
  P21944                   0.78           1      0.00     77.00     77.00     0.001      0.01    0.0  100.0
  P22282                  34.39          32      0.00    213.93    400.00     0.106      8.72    0.0    1.5
  P22549                   2.63           1      0.00     63.19     75.00     0.002      0.77    0.0    0.5
  

  Analysis begun on:  Fri Nov 29 11:06:21 2019
  Analysis ended on:  Fri Nov 29 11:06:33 2019
  Total elapsed time: 00:00:12