
  EPA STORM WATER MANAGEMENT MODEL - VERSION 5.1 (Build 5.1.013)
  --------------------------------------------------------------

  
  *********************************************************
  NOTE: The summary statistics displayed in this report are
  based on results found at every computational time step,  
  not just on results from each reporting time step.
  *********************************************************
  
  ****************
  Analysis Options
  ****************
  Flow Units ............... CFS
  Process Models:
    Rainfall/Runoff ........ YES
    RDII ................... NO
    Snowmelt ............... NO
    Groundwater ............ NO
    Flow Routing ........... YES
    Ponding Allowed ........ YES
    Water Quality .......... NO
  Infiltration Method ...... HORTON
  Flow Routing Method ...... DYNWAVE
  Surcharge Method ......... EXTRAN
  Starting Date ............ 01/01/2002 00:00:00
  Ending Date .............. 01/01/2002 06:00:00
  Antecedent Dry Days ...... 5.0
  Report Time Step ......... 00:01:00
  Wet Time Step ............ 00:01:00
  Dry Time Step ............ 01:00:00
  Routing Time Step ........ 10.00 sec
  Variable Time Step ....... YES
  Maximum Trials ........... 8
  Number of Threads ........ 1
  Head Tolerance ........... 0.005000 ft
  
  
  **************************        Volume         Depth
  Runoff Quantity Continuity     acre-feet        inches
  **************************     ---------       -------
  Total Precipitation ......         0.000         0.000
  Evaporation Loss .........         0.000         0.000
  Infiltration Loss ........         0.000         0.000
  Surface Runoff ...........         0.000         0.000
  Final Storage ............         0.000         0.000
  Continuity Error (%) .....         0.000
  
  
  **************************        Volume        Volume
  Flow Routing Continuity        acre-feet      10^6 gal
  **************************     ---------     ---------
  Dry Weather Inflow .......         0.000         0.000
  Wet Weather Inflow .......         0.000         0.000
  Groundwater Inflow .......         0.000         0.000
  RDII Inflow ..............         0.000         0.000
  External Inflow ..........         0.000         0.000
  External Outflow .........         0.000         0.000
  Flooding Loss ............         0.000         0.000
  Evaporation Loss .........         0.000         0.000
  Exfiltration Loss ........         0.000         0.000
  Initial Stored Volume ....         2.572         0.838
  Final Stored Volume ......         2.572         0.838
  Continuity Error (%) .....         0.000
  
  
  ***************************
  Time-Step Critical Elements
  ***************************
  None
  
  
  ********************************
  Highest Flow Instability Indexes
  ********************************
  All links are stable.
  
  
  ***************************
  Subcatchment Runoff Summary
  ***************************
  
  ------------------------------------------------------------------------------------------------------------------------------
                            Total      Total      Total      Total     Imperv       Perv      Total       Total     Peak  Runoff
                           Precip      Runon       Evap      Infil     Runoff     Runoff     Runoff      Runoff   Runoff   Coeff
  Subcatchment                 in         in         in         in         in         in         in    10^6 gal      CFS
  ------------------------------------------------------------------------------------------------------------------------------
  SUB-100                    0.00       0.00       0.00       0.00       0.00       0.00       0.00        0.00     0.00   0.000
  SUB-102                    0.00       0.00       0.00       0.00       0.00       0.00       0.00        0.00     0.00   0.000
  SUB-104                    0.00       0.00       0.00       0.00       0.00       0.00       0.00        0.00     0.00   0.000
  SUB-106                    0.00       0.00       0.00       0.00       0.00       0.00       0.00        0.00     0.00   0.000
  SUB-108                    0.00       0.00       0.00       0.00       0.00       0.00       0.00        0.00     0.00   0.000
  SUB-110                    0.00       0.00       0.00       0.00       0.00       0.00       0.00        0.00     0.00   0.000
  SUB-112                    0.00       0.00       0.00       0.00       0.00       0.00       0.00        0.00     0.00   0.000
  SUB-114                    0.00       0.00       0.00       0.00       0.00       0.00       0.00        0.00     0.00   0.000
  SUB-116                    0.00       0.00       0.00       0.00       0.00       0.00       0.00        0.00     0.00   0.000
  SUB-118                    0.00       0.00       0.00       0.00       0.00       0.00       0.00        0.00     0.00   0.000
  SUB-120                    0.00       0.00       0.00       0.00       0.00       0.00       0.00        0.00     0.00   0.000
  SUB-122                    0.00       0.00       0.00       0.00       0.00       0.00       0.00        0.00     0.00   0.000
  SUB-124                    0.00       0.00       0.00       0.00       0.00       0.00       0.00        0.00     0.00   0.000
  SUB-126                    0.00       0.00       0.00       0.00       0.00       0.00       0.00        0.00     0.00   0.000
  SUB-128                    0.00       0.00       0.00       0.00       0.00       0.00       0.00        0.00     0.00   0.000
  SUB-130                    0.00       0.00       0.00       0.00       0.00       0.00       0.00        0.00     0.00   0.000
  SUB-132                    0.00       0.00       0.00       0.00       0.00       0.00       0.00        0.00     0.00   0.000
  SUB-134                    0.00       0.00       0.00       0.00       0.00       0.00       0.00        0.00     0.00   0.000
  SUB-136                    0.00       0.00       0.00       0.00       0.00       0.00       0.00        0.00     0.00   0.000
  SUB-138                    0.00       0.00       0.00       0.00       0.00       0.00       0.00        0.00     0.00   0.000
  SUB-140                    0.00       0.00       0.00       0.00       0.00       0.00       0.00        0.00     0.00   0.000
  SUB-142                    0.00       0.00       0.00       0.00       0.00       0.00       0.00        0.00     0.00   0.000
  SUB-144                    0.00       0.00       0.00       0.00       0.00       0.00       0.00        0.00     0.00   0.000
  SUB-146                    0.00       0.00       0.00       0.00       0.00       0.00       0.00        0.00     0.00   0.000
  SUB-148                    0.00       0.00       0.00       0.00       0.00       0.00       0.00        0.00     0.00   0.000
  SUB-150                    0.00       0.00       0.00       0.00       0.00       0.00       0.00        0.00     0.00   0.000
  SUB-152                    0.00       0.00       0.00       0.00       0.00       0.00       0.00        0.00     0.00   0.000
  SUB-154                    0.00       0.00       0.00       0.00       0.00       0.00       0.00        0.00     0.00   0.000
  SUB-156                    0.00       0.00       0.00       0.00       0.00       0.00       0.00        0.00     0.00   0.000
  SUB-158                    0.00       0.00       0.00       0.00       0.00       0.00       0.00        0.00     0.00   0.000
  SUB-160                    0.00       0.00       0.00       0.00       0.00       0.00       0.00        0.00     0.00   0.000
  SUB-162                    0.00       0.00       0.00       0.00       0.00       0.00       0.00        0.00     0.00   0.000
  SUB-164                    0.00       0.00       0.00       0.00       0.00       0.00       0.00        0.00     0.00   0.000
  SUB-166                    0.00       0.00       0.00       0.00       0.00       0.00       0.00        0.00     0.00   0.000
  SUB-168                    0.00       0.00       0.00       0.00       0.00       0.00       0.00        0.00     0.00   0.000
  SUB-170                    0.00       0.00       0.00       0.00       0.00       0.00       0.00        0.00     0.00   0.000
  SUB-172                    0.00       0.00       0.00       0.00       0.00       0.00       0.00        0.00     0.00   0.000
  SUB-174                    0.00       0.00       0.00       0.00       0.00       0.00       0.00        0.00     0.00   0.000
  SUB-176                    0.00       0.00       0.00       0.00       0.00       0.00       0.00        0.00     0.00   0.000
  SUB-178                    0.00       0.00       0.00       0.00       0.00       0.00       0.00        0.00     0.00   0.000
  SUB-180                    0.00       0.00       0.00       0.00       0.00       0.00       0.00        0.00     0.00   0.000
  SUB-182                    0.00       0.00       0.00       0.00       0.00       0.00       0.00        0.00     0.00   0.000
  SUB-184                    0.00       0.00       0.00       0.00       0.00       0.00       0.00        0.00     0.00   0.000
  SUB-186                    0.00       0.00       0.00       0.00       0.00       0.00       0.00        0.00     0.00   0.000
  SUB-188                    0.00       0.00       0.00       0.00       0.00       0.00       0.00        0.00     0.00   0.000
  SUB-190                    0.00       0.00       0.00       0.00       0.00       0.00       0.00        0.00     0.00   0.000
  SUB-192                    0.00       0.00       0.00       0.00       0.00       0.00       0.00        0.00     0.00   0.000
  SUB-194                    0.00       0.00       0.00       0.00       0.00       0.00       0.00        0.00     0.00   0.000
  SUB-196                    0.00       0.00       0.00       0.00       0.00       0.00       0.00        0.00     0.00   0.000
  SUB-198                    0.00       0.00       0.00       0.00       0.00       0.00       0.00        0.00     0.00   0.000
  SUB-200                    0.00       0.00       0.00       0.00       0.00       0.00       0.00        0.00     0.00   0.000
  SUB-202                    0.00       0.00       0.00       0.00       0.00       0.00       0.00        0.00     0.00   0.000
  SUB-204                    0.00       0.00       0.00       0.00       0.00       0.00       0.00        0.00     0.00   0.000
  SUB-206                    0.00       0.00       0.00       0.00       0.00       0.00       0.00        0.00     0.00   0.000
  SUB-208                    0.00       0.00       0.00       0.00       0.00       0.00       0.00        0.00     0.00   0.000
  SUB-210                    0.00       0.00       0.00       0.00       0.00       0.00       0.00        0.00     0.00   0.000
  SUB-212                    0.00       0.00       0.00       0.00       0.00       0.00       0.00        0.00     0.00   0.000
  SUB-214                    0.00       0.00       0.00       0.00       0.00       0.00       0.00        0.00     0.00   0.000
  SUB-216                    0.00       0.00       0.00       0.00       0.00       0.00       0.00        0.00     0.00   0.000
  SUB-218                    0.00       0.00       0.00       0.00       0.00       0.00       0.00        0.00     0.00   0.000
  SUB-220                    0.00       0.00       0.00       0.00       0.00       0.00       0.00        0.00     0.00   0.000
  SUB-222                    0.00       0.00       0.00       0.00       0.00       0.00       0.00        0.00     0.00   0.000
  SUB-224                    0.00       0.00       0.00       0.00       0.00       0.00       0.00        0.00     0.00   0.000
  SUB-226                    0.00       0.00       0.00       0.00       0.00       0.00       0.00        0.00     0.00   0.000
  SUB-228                    0.00       0.00       0.00       0.00       0.00       0.00       0.00        0.00     0.00   0.000
  SUB-230                    0.00       0.00       0.00       0.00       0.00       0.00       0.00        0.00     0.00   0.000
  SUB-232                    0.00       0.00       0.00       0.00       0.00       0.00       0.00        0.00     0.00   0.000
  SUB-234                    0.00       0.00       0.00       0.00       0.00       0.00       0.00        0.00     0.00   0.000
  SUB-236                    0.00       0.00       0.00       0.00       0.00       0.00       0.00        0.00     0.00   0.000
  SUB-238                    0.00       0.00       0.00       0.00       0.00       0.00       0.00        0.00     0.00   0.000
  SUB-240                    0.00       0.00       0.00       0.00       0.00       0.00       0.00        0.00     0.00   0.000
  SUB-242                    0.00       0.00       0.00       0.00       0.00       0.00       0.00        0.00     0.00   0.000
  SUB-244                    0.00       0.00       0.00       0.00       0.00       0.00       0.00        0.00     0.00   0.000
  SUB-246                    0.00       0.00       0.00       0.00       0.00       0.00       0.00        0.00     0.00   0.000
  SUB-248                    0.00       0.00       0.00       0.00       0.00       0.00       0.00        0.00     0.00   0.000
  SUB-250                    0.00       0.00       0.00       0.00       0.00       0.00       0.00        0.00     0.00   0.000
  SUB-252                    0.00       0.00       0.00       0.00       0.00       0.00       0.00        0.00     0.00   0.000
  SUB-254                    0.00       0.00       0.00       0.00       0.00       0.00       0.00        0.00     0.00   0.000
  SUB-256                    0.00       0.00       0.00       0.00       0.00       0.00       0.00        0.00     0.00   0.000
  SUB-258                    0.00       0.00       0.00       0.00       0.00       0.00       0.00        0.00     0.00   0.000
  SUB-260                    0.00       0.00       0.00       0.00       0.00       0.00       0.00        0.00     0.00   0.000
  SUB-262                    0.00       0.00       0.00       0.00       0.00       0.00       0.00        0.00     0.00   0.000
  SUB-264                    0.00       0.00       0.00       0.00       0.00       0.00       0.00        0.00     0.00   0.000
  SUB-266                    0.00       0.00       0.00       0.00       0.00       0.00       0.00        0.00     0.00   0.000
  SUB-268                    0.00       0.00       0.00       0.00       0.00       0.00       0.00        0.00     0.00   0.000
  SUB-270                    0.00       0.00       0.00       0.00       0.00       0.00       0.00        0.00     0.00   0.000
  SUB-272                    0.00       0.00       0.00       0.00       0.00       0.00       0.00        0.00     0.00   0.000
  SUB-274                    0.00       0.00       0.00       0.00       0.00       0.00       0.00        0.00     0.00   0.000
  SUB-276                    0.00       0.00       0.00       0.00       0.00       0.00       0.00        0.00     0.00   0.000
  SUB-278                    0.00       0.00       0.00       0.00       0.00       0.00       0.00        0.00     0.00   0.000
  SUB-280                    0.00       0.00       0.00       0.00       0.00       0.00       0.00        0.00     0.00   0.000
  SUB-282                    0.00       0.00       0.00       0.00       0.00       0.00       0.00        0.00     0.00   0.000
  SUB-284                    0.00       0.00       0.00       0.00       0.00       0.00       0.00        0.00     0.00   0.000
  SUB-288                    0.00       0.00       0.00       0.00       0.00       0.00       0.00        0.00     0.00   0.000
  SUB-290                    0.00       0.00       0.00       0.00       0.00       0.00       0.00        0.00     0.00   0.000
  SUB-292                    0.00       0.00       0.00       0.00       0.00       0.00       0.00        0.00     0.00   0.000
  SUB-294                    0.00       0.00       0.00       0.00       0.00       0.00       0.00        0.00     0.00   0.000
  SUB-296                    0.00       0.00       0.00       0.00       0.00       0.00       0.00        0.00     0.00   0.000
  SUB-298                    0.00       0.00       0.00       0.00       0.00       0.00       0.00        0.00     0.00   0.000
  SUB-300                    0.00       0.00       0.00       0.00       0.00       0.00       0.00        0.00     0.00   0.000
  SUB-302                    0.00       0.00       0.00       0.00       0.00       0.00       0.00        0.00     0.00   0.000
  SUB-304                    0.00       0.00       0.00       0.00       0.00       0.00       0.00        0.00     0.00   0.000
  SUB-306                    0.00       0.00       0.00       0.00       0.00       0.00       0.00        0.00     0.00   0.000
  SUB-308                    0.00       0.00       0.00       0.00       0.00       0.00       0.00        0.00     0.00   0.000
  SUB-310                    0.00       0.00       0.00       0.00       0.00       0.00       0.00        0.00     0.00   0.000
  SUB-312                    0.00       0.00       0.00       0.00       0.00       0.00       0.00        0.00     0.00   0.000
  SUB-314                    0.00       0.00       0.00       0.00       0.00       0.00       0.00        0.00     0.00   0.000
  SUB-316                    0.00       0.00       0.00       0.00       0.00       0.00       0.00        0.00     0.00   0.000
  SUB-318                    0.00       0.00       0.00       0.00       0.00       0.00       0.00        0.00     0.00   0.000
  SUB-320                    0.00       0.00       0.00       0.00       0.00       0.00       0.00        0.00     0.00   0.000
  SUB-322                    0.00       0.00       0.00       0.00       0.00       0.00       0.00        0.00     0.00   0.000
  SUB-324                    0.00       0.00       0.00       0.00       0.00       0.00       0.00        0.00     0.00   0.000
  SUB-326                    0.00       0.00       0.00       0.00       0.00       0.00       0.00        0.00     0.00   0.000
  SUB-328                    0.00       0.00       0.00       0.00       0.00       0.00       0.00        0.00     0.00   0.000
  SUB-330                    0.00       0.00       0.00       0.00       0.00       0.00       0.00        0.00     0.00   0.000
  SUB-332                    0.00       0.00       0.00       0.00       0.00       0.00       0.00        0.00     0.00   0.000
  SUB-333                    0.00       0.00       0.00       0.00       0.00       0.00       0.00        0.00     0.00   0.000
  SUB-334                    0.00       0.00       0.00       0.00       0.00       0.00       0.00        0.00     0.00   0.000
  SUB-335                    0.00       0.00       0.00       0.00       0.00       0.00       0.00        0.00     0.00   0.000
  SUB-336                    0.00       0.00       0.00       0.00       0.00       0.00       0.00        0.00     0.00   0.000
  SUB-338                    0.00       0.00       0.00       0.00       0.00       0.00       0.00        0.00     0.00   0.000
  SUB-340                    0.00       0.00       0.00       0.00       0.00       0.00       0.00        0.00     0.00   0.000
  SUB-342                    0.00       0.00       0.00       0.00       0.00       0.00       0.00        0.00     0.00   0.000
  SUB-344                    0.00       0.00       0.00       0.00       0.00       0.00       0.00        0.00     0.00   0.000
  SUB-346                    0.00       0.00       0.00       0.00       0.00       0.00       0.00        0.00     0.00   0.000
  SUB-348                    0.00       0.00       0.00       0.00       0.00       0.00       0.00        0.00     0.00   0.000
  SUB-350                    0.00       0.00       0.00       0.00       0.00       0.00       0.00        0.00     0.00   0.000
  SUB-352                    0.00       0.00       0.00       0.00       0.00       0.00       0.00        0.00     0.00   0.000
  
  
  ******************
  Node Depth Summary
  ******************
  
  ---------------------------------------------------------------------------------
                                 Average  Maximum  Maximum  Time of Max    Reported
                                   Depth    Depth      HGL   Occurrence   Max Depth
  Node                 Type         Feet     Feet     Feet  days hr:min        Feet
  ---------------------------------------------------------------------------------
  CDT-667              JUNCTION  -nan(ind)     0.00  4928.84     0  00:00        0.00
  JCT-100              JUNCTION  -nan(ind)     0.00  4946.75     0  00:00        0.00
  JCT-104              JUNCTION  -nan(ind)     0.00  4945.87     0  00:00        0.00
  JCT-108              JUNCTION  -nan(ind)     0.00  4945.60     0  00:00        0.00
  JCT-112              JUNCTION  -nan(ind)     0.00  4944.06     0  00:00        0.00
  JCT-116              JUNCTION  -nan(ind)     0.00  4942.91     0  00:00        0.00
  JCT-120              JUNCTION  -nan(ind)     0.00  4944.41     0  00:00        0.00
  JCT-124              JUNCTION  -nan(ind)     0.00  4941.40     0  00:00        0.00
  JCT-128              JUNCTION  -nan(ind)     0.00  4941.34     0  00:00        0.00
  JCT-132              JUNCTION  -nan(ind)     0.00  4947.69     0  00:00        0.00
  JCT-136              JUNCTION  -nan(ind)     0.00  4941.60     0  00:00        0.00
  JCT-140              JUNCTION  -nan(ind)     0.00  4947.92     0  00:00        0.00
  JCT-144              JUNCTION  -nan(ind)     0.00  4942.67     0  00:00        0.00
  JCT-148              JUNCTION  -nan(ind)     0.00  4943.71     0  00:00        0.00
  JCT-152              JUNCTION  -nan(ind)     0.00  4952.90     0  00:00        0.00
  JCT-156              JUNCTION  -nan(ind)     0.00  4943.90     0  00:00        0.00
  JCT-160              JUNCTION  -nan(ind)     0.00  4955.84     0  00:00        0.00
  JCT-164              JUNCTION  -nan(ind)     0.00  4945.08     0  00:00        0.00
  JCT-166              JUNCTION  -nan(ind)     0.00  4946.02     0  00:00        0.00
  JCT-168              JUNCTION  -nan(ind)     0.00  4962.58     0  00:00        0.00
  JCT-172              JUNCTION  -nan(ind)     0.00  4958.70     0  00:00        0.00
  JCT-176              JUNCTION  -nan(ind)     0.00  4942.25     0  00:00        0.00
  JCT-180              JUNCTION  -nan(ind)     0.00  4943.09     0  00:00        0.00
  JCT-184              JUNCTION  -nan(ind)     0.00  4941.68     0  00:00        0.00
  JCT-188              JUNCTION  -nan(ind)     0.00  4942.87     0  00:00        0.00
  JCT-192              JUNCTION  -nan(ind)     0.00  4940.74     0  00:00        0.00
  JCT-196              JUNCTION  -nan(ind)     0.00  4939.37     0  00:00        0.00
  JCT-200              JUNCTION  -nan(ind)     0.00  4939.42     0  00:00        0.00
  JCT-204              JUNCTION  -nan(ind)     0.00  4938.91     0  00:00        0.00
  JCT-208              JUNCTION  -nan(ind)     0.00  4939.71     0  00:00        0.00
  JCT-212              JUNCTION  -nan(ind)     0.00  4933.61     0  00:00        0.00
  JCT-216              JUNCTION  -nan(ind)     0.00  4930.25     0  00:00        0.00
  JCT-220              JUNCTION  -nan(ind)     0.00  4937.90     0  00:00        0.00
  JCT-224              JUNCTION  -nan(ind)     0.00  4936.92     0  00:00        0.00
  JCT-228              JUNCTION  -nan(ind)     0.00  4929.60     0  00:00        0.00
  JCT-232              JUNCTION  -nan(ind)     0.00  4920.87     0  00:00        0.00
  JCT-240              JUNCTION  -nan(ind)     0.00  4916.73     0  00:00        0.00
  JCT-241              JUNCTION  -nan(ind)     0.00  4913.80     0  00:00        0.00
  JCT-242              JUNCTION  -nan(ind)     0.00  4912.39     0  00:00        0.00
  JCT-243              JUNCTION  -nan(ind)     0.00  4913.16     0  00:00        0.00
  JCT-244              JUNCTION  -nan(ind)     0.00  4948.81     0  00:00        0.00
  JCT-248              JUNCTION  -nan(ind)     0.00  4946.70     0  00:00        0.00
  JCT-252              JUNCTION  -nan(ind)     0.00  4945.74     0  00:00        0.00
  JCT-256              JUNCTION  -nan(ind)     0.00  4944.06     0  00:00        0.00
  JCT-260              JUNCTION  -nan(ind)     0.00  4947.79     0  00:00        0.00
  JCT-264              JUNCTION  -nan(ind)     0.00  4947.56     0  00:00        0.00
  JCT-268              JUNCTION  -nan(ind)     0.00  4943.81     0  00:00        0.00
  JCT-272              JUNCTION  -nan(ind)     0.00  4942.83     0  00:00        0.00
  JCT-276              JUNCTION  -nan(ind)     0.00  4942.17     0  00:00        0.00
  JCT-280              JUNCTION  -nan(ind)     0.00  4946.69     0  00:00        0.00
  JCT-282              JUNCTION  -nan(ind)     0.00  4950.83     0  00:00        0.00
  JCT-284              JUNCTION  -nan(ind)     0.00  4941.89     0  00:00        0.00
  JCT-288              JUNCTION  -nan(ind)     0.00  4947.58     0  00:00        0.00
  JCT-290              JUNCTION  -nan(ind)     0.00  4947.38     0  00:00        0.00
  JCT-292              JUNCTION  -nan(ind)     0.00  4943.85     0  00:00        0.00
  JCT-300              JUNCTION  -nan(ind)     0.00  4938.78     0  00:00        0.00
  JCT-304              JUNCTION  -nan(ind)     0.00  4936.60     0  00:00        0.00
  JCT-308              JUNCTION  -nan(ind)     0.00  4935.40     0  00:00        0.00
  JCT-312              JUNCTION  -nan(ind)     0.00  4939.02     0  00:00        0.00
  JCT-316              JUNCTION  -nan(ind)     0.00  4935.68     0  00:00        0.00
  JCT-320              JUNCTION  -nan(ind)     0.00  4939.08     0  00:00        0.00
  JCT-324              JUNCTION  -nan(ind)     0.00  4933.84     0  00:00        0.00
  JCT-328              JUNCTION  -nan(ind)     0.00  4931.45     0  00:00        0.00
  JCT-332              JUNCTION  -nan(ind)     0.00  4931.23     0  00:00        0.00
  JCT-336              JUNCTION  -nan(ind)     0.00  4939.69     0  00:00        0.00
  JCT-340              JUNCTION  -nan(ind)     0.00  4933.89     0  00:00        0.00
  JCT-344              JUNCTION  -nan(ind)     0.00  4930.76     0  00:00        0.00
  JCT-348              JUNCTION  -nan(ind)     0.00  4930.09     0  00:00        0.00
  JCT-352              JUNCTION  -nan(ind)     0.00  4943.01     0  00:00        0.00
  JCT-356              JUNCTION  -nan(ind)     0.00  4938.18     0  00:00        0.00
  JCT-360              JUNCTION  -nan(ind)     0.00  4934.51     0  00:00        0.00
  JCT-364              JUNCTION  -nan(ind)     0.00  4933.16     0  00:00        0.00
  JCT-368              JUNCTION  -nan(ind)     0.00  4943.05     0  00:00        0.00
  JCT-372              JUNCTION  -nan(ind)     0.00  4939.82     0  00:00        0.00
  JCT-376              JUNCTION  -nan(ind)     0.00  4938.93     0  00:00        0.00
  JCT-380              JUNCTION  -nan(ind)     0.00  4939.75     0  00:00        0.00
  JCT-384              JUNCTION  -nan(ind)     0.00  4935.07     0  00:00        0.00
  JCT-388              JUNCTION  -nan(ind)     0.00  4937.58     0  00:00        0.00
  JCT-392              JUNCTION  -nan(ind)     0.00  4923.46     0  00:00        0.00
  JCT-396              JUNCTION  -nan(ind)     0.00  4917.39     0  00:00        0.00
  JCT-400              JUNCTION  -nan(ind)     0.00  4917.75     0  00:00        0.00
  JCT-402              JUNCTION  -nan(ind)     0.00  4911.40     0  00:00        0.00
  JCT-406              JUNCTION  -nan(ind)     0.00  4933.00     0  00:00        0.00
  JCT-410              JUNCTION  -nan(ind)     0.00  4960.11     0  00:00        0.00
  JCT-412              JUNCTION  -nan(ind)     0.00  4950.76     0  00:00        0.00
  JCT-414              JUNCTION  -nan(ind)     0.00  4955.34     0  00:00        0.00
  JCT-416              JUNCTION  -nan(ind)     0.00  4946.89     0  00:00        0.00
  JCT-418              JUNCTION  -nan(ind)     0.00  4951.36     0  00:00        0.00
  JCT-420              JUNCTION  -nan(ind)     0.00  4946.47     0  00:00        0.00
  JCT-424              JUNCTION  -nan(ind)     0.00  4948.92     0  00:00        0.00
  JCT-428              JUNCTION  -nan(ind)     0.00  4944.70     0  00:00        0.00
  JCT-432              JUNCTION  -nan(ind)     0.00  4944.07     0  00:00        0.00
  JCT-436              JUNCTION  -nan(ind)     0.00  4939.48     0  00:00        0.00
  JCT-444              JUNCTION  -nan(ind)     0.00  4932.30     0  00:00        0.00
  JCT-448              JUNCTION  -nan(ind)     0.00  4950.28     0  00:00        0.00
  JCT-452              JUNCTION  -nan(ind)     0.00  4946.84     0  00:00        0.00
  JCT-454              JUNCTION  -nan(ind)     0.00  4951.57     0  00:00        0.00
  JCT-456              JUNCTION  -nan(ind)     0.00  4949.13     0  00:00        0.00
  JCT-460              JUNCTION  -nan(ind)     0.00  4946.57     0  00:00        0.00
  JCT-464              JUNCTION  -nan(ind)     0.00  4948.29     0  00:00        0.00
  JCT-468              JUNCTION  -nan(ind)     0.00  4944.43     0  00:00        0.00
  JCT-472              JUNCTION  -nan(ind)     0.00  4946.86     0  00:00        0.00
  JCT-476              JUNCTION  -nan(ind)     0.00  4946.26     0  00:00        0.00
  JCT-480              JUNCTION  -nan(ind)     0.00  4941.27     0  00:00        0.00
  JCT-484              JUNCTION  -nan(ind)     0.00  4944.51     0  00:00        0.00
  JCT-488              JUNCTION  -nan(ind)     0.00  4937.58     0  00:00        0.00
  JCT-491              JUNCTION  -nan(ind)     0.00  4934.79     0  00:00        0.00
  JCT-492              JUNCTION  -nan(ind)     0.00  4934.25     0  00:00        0.00
  JCT-496              JUNCTION  -nan(ind)     0.00  4934.20     0  00:00        0.00
  JCT-500              JUNCTION  -nan(ind)     0.00  4941.37     0  00:00        0.00
  JCT-504              JUNCTION  -nan(ind)     0.00  4936.14     0  00:00        0.00
  JCT-508              JUNCTION  -nan(ind)     0.00  4933.62     0  00:00        0.00
  JCT-516              JUNCTION  -nan(ind)     0.00  4948.39     0  00:00        0.00
  JCT-520              JUNCTION  -nan(ind)     0.00  4944.31     0  00:00        0.00
  JCT-524              JUNCTION  -nan(ind)     0.00  4942.11     0  00:00        0.00
  JCT-528              JUNCTION  -nan(ind)     0.00  4940.80     0  00:00        0.00
  JCT-532              JUNCTION  -nan(ind)     0.00  4938.83     0  00:00        0.00
  JCT-536              JUNCTION  -nan(ind)     0.00  4944.72     0  00:00        0.00
  JCT-540              JUNCTION  -nan(ind)     0.00  4940.58     0  00:00        0.00
  JCT-544              JUNCTION  -nan(ind)     0.00  4939.25     0  00:00        0.00
  JCT-548              JUNCTION  -nan(ind)     0.00  4942.62     0  00:00        0.00
  JCT-552              JUNCTION  -nan(ind)     0.00  4936.69     0  00:00        0.00
  JCT-554              JUNCTION  -nan(ind)     0.00  4935.24     0  00:00        0.00
  JCT-556              JUNCTION  -nan(ind)     0.00  4933.90     0  00:00        0.00
  JCT-558              JUNCTION  -nan(ind)     0.00  4932.43     0  00:00        0.00
  JCT-564              JUNCTION  -nan(ind)     0.00  4933.81     0  00:00        0.00
  JCT-568              JUNCTION  -nan(ind)     0.00  4932.04     0  00:00        0.00
  JCT-570              JUNCTION  -nan(ind)     0.00  4928.52     0  00:00        0.00
  JCT-572              JUNCTION  -nan(ind)     0.00  4928.09     0  00:00        0.00
  JCT-574              JUNCTION  -nan(ind)     0.00  4920.51     0  00:00        0.00
  JCT-575              JUNCTION  -nan(ind)     0.00  4914.17     0  00:00        0.00
  JCT-576              JUNCTION  -nan(ind)     0.00  4922.33     0  00:00        0.00
  JCT-577              JUNCTION  -nan(ind)     0.00  4916.13     0  00:00        0.00
  JCT-580              JUNCTION  -nan(ind)     0.00  4929.05     0  00:00        0.00
  JCT-584              JUNCTION  -nan(ind)     0.00  4922.72     0  00:00        0.00
  JCT-588              JUNCTION  -nan(ind)     0.00  4922.17     0  00:00        0.00
  JCT-592              JUNCTION  -nan(ind)     0.00  4920.08     0  00:00        0.00
  JCT-596              JUNCTION  -nan(ind)     0.00  4926.30     0  00:00        0.00
  JCT-600              JUNCTION  -nan(ind)     0.00  4927.49     0  00:00        0.00
  JCT-604              JUNCTION  -nan(ind)     0.00  4987.79     0  00:00        0.00
  JCT-608              JUNCTION  -nan(ind)     0.00  4985.91     0  00:00        0.00
  JCT-612              JUNCTION  -nan(ind)     0.00  4976.90     0  00:00        0.00
  JCT-616              JUNCTION  -nan(ind)     0.00  4959.18     0  00:00        0.00
  JCT-620              JUNCTION  -nan(ind)     0.00  4947.58     0  00:00        0.00
  JCT-624              JUNCTION  -nan(ind)     0.00  4937.84     0  00:00        0.00
  JCT-628              JUNCTION  -nan(ind)     0.00  4935.77     0  00:00        0.00
  JCT-632              JUNCTION  -nan(ind)     0.00  4934.44     0  00:00        0.00
  JCT-636              JUNCTION  -nan(ind)     0.00  4933.75     0  00:00        0.00
  JCT-638              JUNCTION  -nan(ind)     0.00  4940.80     0  00:00        0.00
  JCT-640              JUNCTION  -nan(ind)     0.00  4939.82     0  00:00        0.00
  JCT-644              JUNCTION  -nan(ind)     0.00  4934.72     0  00:00        0.00
  JCT-648              JUNCTION  -nan(ind)     0.00  4932.12     0  00:00        0.00
  JCT-650              JUNCTION  -nan(ind)     0.00  4933.08     0  00:00        0.00
  JCT-651              JUNCTION  -nan(ind)     0.00  4920.00     0  00:00        0.00
  JCT-652              JUNCTION  -nan(ind)     0.00  4937.18     0  00:00        0.00
  JCT-656              JUNCTION  -nan(ind)     0.00  4930.72     0  00:00        0.00
  JCT-658              JUNCTION  -nan(ind)     0.00  4924.64     0  00:00        0.00
  JCT-660              JUNCTION  -nan(ind)     0.00  4922.36     0  00:00        0.00
  JCT-664              JUNCTION  -nan(ind)     0.00  4941.91     0  00:00        0.00
  JCT-668              JUNCTION  -nan(ind)     0.00  4938.73     0  00:00        0.00
  JCT-670              JUNCTION  -nan(ind)     0.00  4935.96     0  00:00        0.00
  JCT-672              JUNCTION  -nan(ind)     0.00  4934.29     0  00:00        0.00
  JCT-673              JUNCTION  -nan(ind)     0.00  4930.13     0  00:00        0.00
  JCT-674              JUNCTION  -nan(ind)     0.00  4926.63     0  00:00        0.00
  JCT-677              JUNCTION  -nan(ind)     0.00  4912.02     0  00:00        0.00
  JCT-678              JUNCTION  -nan(ind)     0.00  4927.31     0  00:00        0.00
  JCT-682              JUNCTION  -nan(ind)     0.00  4924.37     0  00:00        0.00
  JCT-686              JUNCTION  -nan(ind)     0.00  4922.76     0  00:00        0.00
  JCT-690              JUNCTION  -nan(ind)     0.00  4921.24     0  00:00        0.00
  JCT-692              JUNCTION  -nan(ind)     0.00  4919.73     0  00:00        0.00
  JCT-694              JUNCTION  -nan(ind)     0.00  4911.38     0  00:00        0.00
  OFALL-10             OUTFALL   -nan(ind)     0.00  4907.75     0  00:00        0.00
  OFALL-20             OUTFALL   -nan(ind)     0.00  4932.50     0  00:00        0.00
  OFALL-26             OUTFALL   -nan(ind)     0.00  4907.00     0  00:00        0.00
  STOR-10              STORAGE   -nan(ind)     0.00  4909.00     0  00:00        0.00
  STOR-12              STORAGE   -nan(ind)     0.00  4938.50     0  00:00        0.00
  STOR-14              STORAGE   -nan(ind)     0.00  4937.42     0  00:00        0.00
  STOR-16              STORAGE   -nan(ind)     0.00  4937.18     0  00:00        0.00
  STOR-18              STORAGE   -nan(ind)     0.00  4932.89     0  00:00        0.00
  STOR-20              STORAGE   -nan(ind)     0.00  4932.62     0  00:00        0.00
  STOR-22              STORAGE   -nan(ind)     0.00  4928.65     0  00:00        0.00
  STOR-24              STORAGE   -nan(ind)     0.00  4928.44     0  00:00        0.00
  STOR-26              STORAGE   -nan(ind)     0.00  4944.08     0  00:00        0.00
  STOR-28              STORAGE   -nan(ind)     0.00  4941.23     0  00:00        0.00
  STOR-30              STORAGE   -nan(ind)     0.00  4942.18     0  00:00        0.00
  STOR-32              STORAGE   -nan(ind)     0.00  4936.03     0  00:00        0.00
  STOR-34              STORAGE   -nan(ind)     0.00  4937.59     0  00:00        0.00
  STOR-36              STORAGE   -nan(ind)     0.00  4934.17     0  00:00        0.00
  STOR-40              STORAGE   -nan(ind)     0.00  4915.74     0  00:00        0.00
  STOR-42              STORAGE   -nan(ind)     0.00  4915.74     0  00:00        0.00
  STOR-44              STORAGE   -nan(ind)     0.00  4927.93     0  00:00        0.00
  STOR-46              STORAGE   -nan(ind)     0.00  4927.71     0  00:00        0.00
  STOR-48              STORAGE   -nan(ind)     0.00  4931.97     0  00:00        0.00
  STOR-50              STORAGE   -nan(ind)     0.00  4928.49     0  00:00        0.00
  STOR-52              STORAGE   -nan(ind)     0.00  4914.00     0  00:00        0.00
  STOR-54              STORAGE   -nan(ind)     0.00  4915.93     0  00:00        0.00
  STOR-56              STORAGE   -nan(ind)     0.00  4916.31     0  00:00        0.00
  STOR-58              STORAGE   -nan(ind)     0.00  4924.36     0  00:00        0.00
  STOR-60              STORAGE   -nan(ind)     0.00  4924.82     0  00:00        0.00
  STOR-70              STORAGE   -nan(ind)     0.00  4908.00     0  00:00        0.00
  
  
  *******************
  Node Inflow Summary
  *******************
  
  -------------------------------------------------------------------------------------------------
                                  Maximum  Maximum                  Lateral       Total        Flow
                                  Lateral    Total  Time of Max      Inflow      Inflow     Balance
                                   Inflow   Inflow   Occurrence      Volume      Volume       Error
  Node                 Type           CFS      CFS  days hr:min    10^6 gal    10^6 gal     Percent
  -------------------------------------------------------------------------------------------------
  CDT-667              JUNCTION      0.00     0.00     0  00:00           0           0       0.000 gal
  JCT-100              JUNCTION      0.00     0.00     0  00:00           0           0       0.000 gal
  JCT-104              JUNCTION      0.00     0.00     0  00:00           0           0       0.000 gal
  JCT-108              JUNCTION      0.00     0.00     0  00:00           0           0       0.000 gal
  JCT-112              JUNCTION      0.00     0.00     0  00:00           0           0       0.000 gal
  JCT-116              JUNCTION      0.00     0.00     0  00:00           0           0       0.000 gal
  JCT-120              JUNCTION      0.00     0.00     0  00:00           0           0       0.000 gal
  JCT-124              JUNCTION      0.00     0.00     0  00:00           0           0       0.000 gal
  JCT-128              JUNCTION      0.00     0.00     0  00:00           0           0       0.000 gal
  JCT-132              JUNCTION      0.00     0.00     0  00:00           0           0       0.000 gal
  JCT-136              JUNCTION      0.00     0.00     0  00:00           0           0       0.000 gal
  JCT-140              JUNCTION      0.00     0.00     0  00:00           0           0       0.000 gal
  JCT-144              JUNCTION      0.00     0.00     0  00:00           0           0       0.000 gal
  JCT-148              JUNCTION      0.00     0.00     0  00:00           0           0       0.000 gal
  JCT-152              JUNCTION      0.00     0.00     0  00:00           0           0       0.000 gal
  JCT-156              JUNCTION      0.00     0.00     0  00:00           0           0       0.000 gal
  JCT-160              JUNCTION      0.00     0.00     0  00:00           0           0       0.000 gal
  JCT-164              JUNCTION      0.00     0.00     0  00:00           0           0       0.000 gal
  JCT-166              JUNCTION      0.00     0.00     0  00:00           0           0       0.000 gal
  JCT-168              JUNCTION      0.00     0.00     0  00:00           0           0       0.000 gal
  JCT-172              JUNCTION      0.00     0.00     0  00:00           0           0       0.000 gal
  JCT-176              JUNCTION      0.00     0.00     0  00:00           0           0       0.000 gal
  JCT-180              JUNCTION      0.00     0.00     0  00:00           0           0       0.000 gal
  JCT-184              JUNCTION      0.00     0.00     0  00:00           0           0       0.000 gal
  JCT-188              JUNCTION      0.00     0.00     0  00:00           0           0       0.000 gal
  JCT-192              JUNCTION      0.00     0.00     0  00:00           0           0       0.000 gal
  JCT-196              JUNCTION      0.00     0.00     0  00:00           0           0       0.000 gal
  JCT-200              JUNCTION      0.00     0.00     0  00:00           0           0       0.000 gal
  JCT-204              JUNCTION      0.00     0.00     0  00:00           0           0       0.000 gal
  JCT-208              JUNCTION      0.00     0.00     0  00:00           0           0       0.000 gal
  JCT-212              JUNCTION      0.00     0.00     0  00:00           0           0       0.000 gal
  JCT-216              JUNCTION      0.00     0.00     0  00:00           0           0       0.000 gal
  JCT-220              JUNCTION      0.00     0.00     0  00:00           0           0       0.000 gal
  JCT-224              JUNCTION      0.00     0.00     0  00:00           0           0       0.000 gal
  JCT-228              JUNCTION      0.00     0.00     0  00:00           0           0       0.000 gal
  JCT-232              JUNCTION      0.00     0.00     0  00:00           0           0       0.000 gal
  JCT-240              JUNCTION      0.00     0.00     0  00:00           0           0       0.000 gal
  JCT-241              JUNCTION      0.00     0.00     0  00:00           0           0       0.000 gal
  JCT-242              JUNCTION      0.00     0.00     0  00:00           0           0       0.000 gal
  JCT-243              JUNCTION      0.00     0.00     0  00:00           0           0       0.000 gal
  JCT-244              JUNCTION      0.00     0.00     0  00:00           0           0       0.000 gal
  JCT-248              JUNCTION      0.00     0.00     0  00:00           0           0       0.000 gal
  JCT-252              JUNCTION      0.00     0.00     0  00:00           0           0       0.000 gal
  JCT-256              JUNCTION      0.00     0.00     0  00:00           0           0       0.000 gal
  JCT-260              JUNCTION      0.00     0.00     0  00:00           0           0       0.000 gal
  JCT-264              JUNCTION      0.00     0.00     0  00:00           0           0       0.000 gal
  JCT-268              JUNCTION      0.00     0.00     0  00:00           0           0       0.000 gal
  JCT-272              JUNCTION      0.00     0.00     0  00:00           0           0       0.000 gal
  JCT-276              JUNCTION      0.00     0.00     0  00:00           0           0       0.000 gal
  JCT-280              JUNCTION      0.00     0.00     0  00:00           0           0       0.000 gal
  JCT-282              JUNCTION      0.00     0.00     0  00:00           0           0       0.000 gal
  JCT-284              JUNCTION      0.00     0.00     0  00:00           0           0       0.000 gal
  JCT-288              JUNCTION      0.00     0.00     0  00:00           0           0       0.000 gal
  JCT-290              JUNCTION      0.00     0.00     0  00:00           0           0       0.000 gal
  JCT-292              JUNCTION      0.00     0.00     0  00:00           0           0       0.000 gal
  JCT-300              JUNCTION      0.00     0.00     0  00:00           0           0       0.000 gal
  JCT-304              JUNCTION      0.00     0.00     0  00:00           0           0       0.000 gal
  JCT-308              JUNCTION      0.00     0.00     0  00:00           0           0       0.000 gal
  JCT-312              JUNCTION      0.00     0.00     0  00:00           0           0       0.000 gal
  JCT-316              JUNCTION      0.00     0.00     0  00:00           0           0       0.000 gal
  JCT-320              JUNCTION      0.00     0.00     0  00:00           0           0       0.000 gal
  JCT-324              JUNCTION      0.00     0.00     0  00:00           0           0       0.000 gal
  JCT-328              JUNCTION      0.00     0.00     0  00:00           0           0       0.000 gal
  JCT-332              JUNCTION      0.00     0.00     0  00:00           0           0       0.000 gal
  JCT-336              JUNCTION      0.00     0.00     0  00:00           0           0       0.000 gal
  JCT-340              JUNCTION      0.00     0.00     0  00:00           0           0       0.000 gal
  JCT-344              JUNCTION      0.00     0.00     0  00:00           0           0       0.000 gal
  JCT-348              JUNCTION      0.00     0.00     0  00:00           0           0       0.000 gal
  JCT-352              JUNCTION      0.00     0.00     0  00:00           0           0       0.000 gal
  JCT-356              JUNCTION      0.00     0.00     0  00:00           0           0       0.000 gal
  JCT-360              JUNCTION      0.00     0.00     0  00:00           0           0       0.000 gal
  JCT-364              JUNCTION      0.00     0.00     0  00:00           0           0       0.000 gal
  JCT-368              JUNCTION      0.00     0.00     0  00:00           0           0       0.000 gal
  JCT-372              JUNCTION      0.00     0.00     0  00:00           0           0       0.000 gal
  JCT-376              JUNCTION      0.00     0.00     0  00:00           0           0       0.000 gal
  JCT-380              JUNCTION      0.00     0.00     0  00:00           0           0       0.000 gal
  JCT-384              JUNCTION      0.00     0.00     0  00:00           0           0       0.000 gal
  JCT-388              JUNCTION      0.00     0.00     0  00:00           0           0       0.000 gal
  JCT-392              JUNCTION      0.00     0.00     0  00:00           0           0       0.000 gal
  JCT-396              JUNCTION      0.00     0.00     0  00:00           0           0       0.000 gal
  JCT-400              JUNCTION      0.00     0.00     0  00:00           0           0       0.000 gal
  JCT-402              JUNCTION      0.00     0.00     0  00:00           0           0       0.000 gal
  JCT-406              JUNCTION      0.00     0.00     0  00:00           0           0       0.000 gal
  JCT-410              JUNCTION      0.00     0.00     0  00:00           0           0       0.000 gal
  JCT-412              JUNCTION      0.00     0.00     0  00:00           0           0       0.000 gal
  JCT-414              JUNCTION      0.00     0.00     0  00:00           0           0       0.000 gal
  JCT-416              JUNCTION      0.00     0.00     0  00:00           0           0       0.000 gal
  JCT-418              JUNCTION      0.00     0.00     0  00:00           0           0       0.000 gal
  JCT-420              JUNCTION      0.00     0.00     0  00:00           0           0       0.000 gal
  JCT-424              JUNCTION      0.00     0.00     0  00:00           0           0       0.000 gal
  JCT-428              JUNCTION      0.00     0.00     0  00:00           0           0       0.000 gal
  JCT-432              JUNCTION      0.00     0.00     0  00:00           0           0       0.000 gal
  JCT-436              JUNCTION      0.00     0.00     0  00:00           0           0       0.000 gal
  JCT-444              JUNCTION      0.00     0.00     0  00:00           0           0       0.000 gal
  JCT-448              JUNCTION      0.00     0.00     0  00:00           0           0       0.000 gal
  JCT-452              JUNCTION      0.00     0.00     0  00:00           0           0       0.000 gal
  JCT-454              JUNCTION      0.00     0.00     0  00:00           0           0       0.000 gal
  JCT-456              JUNCTION      0.00     0.00     0  00:00           0           0       0.000 gal
  JCT-460              JUNCTION      0.00     0.00     0  00:00           0           0       0.000 gal
  JCT-464              JUNCTION      0.00     0.00     0  00:00           0           0       0.000 gal
  JCT-468              JUNCTION      0.00     0.00     0  00:00           0           0       0.000 gal
  JCT-472              JUNCTION      0.00     0.00     0  00:00           0           0       0.000 gal
  JCT-476              JUNCTION      0.00     0.00     0  00:00           0           0       0.000 gal
  JCT-480              JUNCTION      0.00     0.00     0  00:00           0           0       0.000 gal
  JCT-484              JUNCTION      0.00     0.00     0  00:00           0           0       0.000 gal
  JCT-488              JUNCTION      0.00     0.00     0  00:00           0           0       0.000 gal
  JCT-491              JUNCTION      0.00     0.00     0  00:00           0           0       0.000 gal
  JCT-492              JUNCTION      0.00     0.00     0  00:00           0           0       0.000 gal
  JCT-496              JUNCTION      0.00     0.00     0  00:00           0           0       0.000 gal
  JCT-500              JUNCTION      0.00     0.00     0  00:00           0           0       0.000 gal
  JCT-504              JUNCTION      0.00     0.00     0  00:00           0           0       0.000 gal
  JCT-508              JUNCTION      0.00     0.00     0  00:00           0           0       0.000 gal
  JCT-516              JUNCTION      0.00     0.00     0  00:00           0           0       0.000 gal
  JCT-520              JUNCTION      0.00     0.00     0  00:00           0           0       0.000 gal
  JCT-524              JUNCTION      0.00     0.00     0  00:00           0           0       0.000 gal
  JCT-528              JUNCTION      0.00     0.00     0  00:00           0           0       0.000 gal
  JCT-532              JUNCTION      0.00     0.00     0  00:00           0           0       0.000 gal
  JCT-536              JUNCTION      0.00     0.00     0  00:00           0           0       0.000 gal
  JCT-540              JUNCTION      0.00     0.00     0  00:00           0           0       0.000 gal
  JCT-544              JUNCTION      0.00     0.00     0  00:00           0           0       0.000 gal
  JCT-548              JUNCTION      0.00     0.00     0  00:00           0           0       0.000 gal
  JCT-552              JUNCTION      0.00     0.00     0  00:00           0           0       0.000 gal
  JCT-554              JUNCTION      0.00     0.00     0  00:00           0           0       0.000 gal
  JCT-556              JUNCTION      0.00     0.00     0  00:00           0           0       0.000 gal
  JCT-558              JUNCTION      0.00     0.00     0  00:00           0           0       0.000 gal
  JCT-564              JUNCTION      0.00     0.00     0  00:00           0           0       0.000 gal
  JCT-568              JUNCTION      0.00     0.00     0  00:00           0           0       0.000 gal
  JCT-570              JUNCTION      0.00     0.00     0  00:00           0           0       0.000 gal
  JCT-572              JUNCTION      0.00     0.00     0  00:00           0           0       0.000 gal
  JCT-574              JUNCTION      0.00     0.00     0  00:00           0           0       0.000 gal
  JCT-575              JUNCTION      0.00     0.00     0  00:00           0           0       0.000 gal
  JCT-576              JUNCTION      0.00     0.00     0  00:00           0           0       0.000 gal
  JCT-577              JUNCTION      0.00     0.00     0  00:00           0           0       0.000 gal
  JCT-580              JUNCTION      0.00     0.00     0  00:00           0           0       0.000 gal
  JCT-584              JUNCTION      0.00     0.00     0  00:00           0           0       0.000 gal
  JCT-588              JUNCTION      0.00     0.00     0  00:00           0           0       0.000 gal
  JCT-592              JUNCTION      0.00     0.00     0  00:00           0           0       0.000 gal
  JCT-596              JUNCTION      0.00     0.00     0  00:00           0           0       0.000 gal
  JCT-600              JUNCTION      0.00     0.00     0  00:00           0           0       0.000 gal
  JCT-604              JUNCTION      0.00     0.00     0  00:00           0           0       0.000 gal
  JCT-608              JUNCTION      0.00     0.00     0  00:00           0           0       0.000 gal
  JCT-612              JUNCTION      0.00     0.00     0  00:00           0           0       0.000 gal
  JCT-616              JUNCTION      0.00     0.00     0  00:00           0           0       0.000 gal
  JCT-620              JUNCTION      0.00     0.00     0  00:00           0           0       0.000 gal
  JCT-624              JUNCTION      0.00     0.00     0  00:00           0           0       0.000 gal
  JCT-628              JUNCTION      0.00     0.00     0  00:00           0           0       0.000 gal
  JCT-632              JUNCTION      0.00     0.00     0  00:00           0           0       0.000 gal
  JCT-636              JUNCTION      0.00     0.00     0  00:00           0           0       0.000 gal
  JCT-638              JUNCTION      0.00     0.00     0  00:00           0           0       0.000 gal
  JCT-640              JUNCTION      0.00     0.00     0  00:00           0           0       0.000 gal
  JCT-644              JUNCTION      0.00     0.00     0  00:00           0           0       0.000 gal
  JCT-648              JUNCTION      0.00     0.00     0  00:00           0           0       0.000 gal
  JCT-650              JUNCTION      0.00     0.00     0  00:00           0           0       0.000 gal
  JCT-651              JUNCTION      0.00     0.00     0  00:00           0           0       0.000 gal
  JCT-652              JUNCTION      0.00     0.00     0  00:00           0           0       0.000 gal
  JCT-656              JUNCTION      0.00     0.00     0  00:00           0           0       0.000 gal
  JCT-658              JUNCTION      0.00     0.00     0  00:00           0           0       0.000 gal
  JCT-660              JUNCTION      0.00     0.00     0  00:00           0           0       0.000 gal
  JCT-664              JUNCTION      0.00     0.00     0  00:00           0           0       0.000 gal
  JCT-668              JUNCTION      0.00     0.00     0  00:00           0           0       0.000 gal
  JCT-670              JUNCTION      0.00     0.00     0  00:00           0           0       0.000 gal
  JCT-672              JUNCTION      0.00     0.00     0  00:00           0           0       0.000 gal
  JCT-673              JUNCTION      0.00     0.00     0  00:00           0           0       0.000 gal
  JCT-674              JUNCTION      0.00     0.00     0  00:00           0           0       0.000 gal
  JCT-677              JUNCTION      0.00     0.00     0  00:00           0           0       0.000 gal
  JCT-678              JUNCTION      0.00     0.00     0  00:00           0           0       0.000 gal
  JCT-682              JUNCTION      0.00     0.00     0  00:00           0           0       0.000 gal
  JCT-686              JUNCTION      0.00     0.00     0  00:00           0           0       0.000 gal
  JCT-690              JUNCTION      0.00     0.00     0  00:00           0           0       0.000 gal
  JCT-692              JUNCTION      0.00     0.00     0  00:00           0           0       0.000 gal
  JCT-694              JUNCTION      0.00     0.00     0  00:00           0           0       0.000 gal
  OFALL-10             OUTFALL       0.00     0.00     0  00:00           0           0       0.000 gal
  OFALL-20             OUTFALL       0.00     0.00     0  00:00           0           0       0.000 gal
  OFALL-26             OUTFALL       0.00     0.00     0  00:00           0           0       0.000 gal
  STOR-10              STORAGE       0.00     0.00     0  00:00           0       0.831       0.000
  STOR-12              STORAGE       0.00     0.00     0  00:00           0           0       0.000 gal
  STOR-14              STORAGE       0.00     0.00     0  00:00           0           0       0.000 gal
  STOR-16              STORAGE       0.00     0.00     0  00:00           0           0       0.000 gal
  STOR-18              STORAGE       0.00     0.00     0  00:00           0           0       0.000 gal
  STOR-20              STORAGE       0.00     0.00     0  00:00           0           0       0.000 gal
  STOR-22              STORAGE       0.00     0.00     0  00:00           0           0       0.000 gal
  STOR-24              STORAGE       0.00     0.00     0  00:00           0           0       0.000 gal
  STOR-26              STORAGE       0.00     0.00     0  00:00           0           0       0.000 gal
  STOR-28              STORAGE       0.00     0.00     0  00:00           0           0       0.000 gal
  STOR-30              STORAGE       0.00     0.00     0  00:00           0           0       0.000 gal
  STOR-32              STORAGE       0.00     0.00     0  00:00           0           0       0.000 gal
  STOR-34              STORAGE       0.00     0.00     0  00:00           0           0       0.000 gal
  STOR-36              STORAGE       0.00     0.00     0  00:00           0           0       0.000 gal
  STOR-40              STORAGE       0.00     0.00     0  00:00           0           0       0.000 gal
  STOR-42              STORAGE       0.00     0.00     0  00:00           0           0       0.000 gal
  STOR-44              STORAGE       0.00     0.00     0  00:00           0           0       0.000 gal
  STOR-46              STORAGE       0.00     0.00     0  00:00           0           0       0.000 gal
  STOR-48              STORAGE       0.00     0.00     0  00:00           0           0       0.000 gal
  STOR-50              STORAGE       0.00     0.00     0  00:00           0           0       0.000 gal
  STOR-52              STORAGE       0.00     0.00     0  00:00           0           0       0.000 gal
  STOR-54              STORAGE       0.00     0.00     0  00:00           0           0       0.000 gal
  STOR-56              STORAGE       0.00     0.00     0  00:00           0           0       0.000 gal
  STOR-58              STORAGE       0.00     0.00     0  00:00           0           0       0.000 gal
  STOR-60              STORAGE       0.00     0.00     0  00:00           0           0       0.000 gal
  STOR-70              STORAGE       0.00     0.00     0  00:00           0           0       0.000 gal
  
  
  **********************
  Node Surcharge Summary
  **********************
  
  No nodes were surcharged.
  
  
  *********************
  Node Flooding Summary
  *********************
  
  No nodes were flooded.
  
  
  **********************
  Storage Volume Summary
  **********************
  
  --------------------------------------------------------------------------------------------------
                         Average     Avg  Evap Exfil       Maximum     Max    Time of Max    Maximum
                          Volume    Pcnt  Pcnt  Pcnt        Volume    Pcnt     Occurrence    Outflow
  Storage Unit          1000 ft3    Full  Loss  Loss      1000 ft3    Full    days hr:min        CFS
  --------------------------------------------------------------------------------------------------
  STOR-10              -nan(ind)    -nan(ind)     0     0         0.000       0       0  00:00       0.00
  STOR-12              -nan(ind)    -nan(ind)     0     0         0.000       0       0  00:00       0.00
  STOR-14              -nan(ind)    -nan(ind)     0     0         0.000       0       0  00:00       0.00
  STOR-16              -nan(ind)    -nan(ind)     0     0         0.000       0       0  00:00       0.00
  STOR-18              -nan(ind)    -nan(ind)     0     0         0.000       0       0  00:00       0.00
  STOR-20              -nan(ind)    -nan(ind)     0     0         0.000       0       0  00:00       0.00
  STOR-22              -nan(ind)    -nan(ind)     0     0         0.000       0       0  00:00       0.00
  STOR-24              -nan(ind)    -nan(ind)     0     0         0.000       0       0  00:00       0.00
  STOR-26              -nan(ind)    -nan(ind)     0     0         0.000       0       0  00:00       0.00
  STOR-28              -nan(ind)    -nan(ind)     0     0         0.000       0       0  00:00       0.00
  STOR-30              -nan(ind)    -nan(ind)     0     0         0.000       0       0  00:00       0.00
  STOR-32              -nan(ind)    -nan(ind)     0     0         0.000       0       0  00:00       0.00
  STOR-34              -nan(ind)    -nan(ind)     0     0         0.000       0       0  00:00       0.00
  STOR-36              -nan(ind)    -nan(ind)     0     0         0.000       0       0  00:00       0.00
  STOR-40              -nan(ind)    -nan(ind)     0     0         0.000       0       0  00:00       0.00
  STOR-42              -nan(ind)    -nan(ind)     0     0         0.000       0       0  00:00       0.00
  STOR-44              -nan(ind)    -nan(ind)     0     0         0.000       0       0  00:00       0.00
  STOR-46              -nan(ind)    -nan(ind)     0     0         0.000       0       0  00:00       0.00
  STOR-48              -nan(ind)    -nan(ind)     0     0         0.000       0       0  00:00       0.00
  STOR-50              -nan(ind)    -nan(ind)     0     0         0.000       0       0  00:00       0.00
  STOR-52              -nan(ind)    -nan(ind)     0     0         0.000       0       0  00:00       0.00
  STOR-54              -nan(ind)    -nan(ind)     0     0         0.000       0       0  00:00       0.00
  STOR-56              -nan(ind)    -nan(ind)     0     0         0.000       0       0  00:00       0.00
  STOR-58              -nan(ind)    -nan(ind)     0     0         0.000       0       0  00:00       0.00
  STOR-60              -nan(ind)    -nan(ind)     0     0         0.000       0       0  00:00       0.00
  STOR-70              -nan(ind)    -nan(ind)     0     0         0.000       0       0  00:00       0.00
  
  
  ***********************
  Outfall Loading Summary
  ***********************
  
  -----------------------------------------------------------
                         Flow       Avg       Max       Total
                         Freq      Flow      Flow      Volume
  Outfall Node           Pcnt       CFS       CFS    10^6 gal
  -----------------------------------------------------------
  OFALL-10            -nan(ind)      0.00      0.00       0.000
  OFALL-20            -nan(ind)      0.00      0.00       0.000
  OFALL-26            -nan(ind)      0.00      0.00       0.000
  -----------------------------------------------------------
  System              -nan(ind)      0.00      0.00       0.000
  
  
  ********************
  Link Flow Summary
  ********************
  
  -----------------------------------------------------------------------------
                                 Maximum  Time of Max   Maximum    Max/    Max/
                                  |Flow|   Occurrence   |Veloc|    Full    Full
  Link                 Type          CFS  days hr:min    ft/sec    Flow   Depth
  -----------------------------------------------------------------------------
  CDT-100              CHANNEL      0.00     0  00:00      0.00    0.00    0.00
  CDT-104              CHANNEL      0.00     0  00:00      0.00    0.00    0.00
  CDT-108              CHANNEL      0.00     0  00:00      0.00    0.00    0.00
  CDT-112              CHANNEL      0.00     0  00:00      0.00    0.00    0.00
  CDT-116              CHANNEL      0.00     0  00:00      0.00    0.00    0.00
  CDT-120              CHANNEL      0.00     0  00:00      0.00    0.00    0.00
  CDT-124              CHANNEL      0.00     0  00:00      0.00    0.00    0.00
  CDT-125              CHANNEL      0.00     0  00:00      0.00    0.00    0.00
  CDT-128              CHANNEL      0.00     0  00:00      0.00    0.00    0.00
  CDT-132              CHANNEL      0.00     0  00:00      0.00    0.00    0.00
  CDT-136              CHANNEL      0.00     0  00:00      0.00    0.00    0.00
  CDT-140              CHANNEL      0.00     0  00:00      0.00    0.00    0.00
  CDT-144              CHANNEL      0.00     0  00:00      0.00    0.00    0.00
  CDT-148              CHANNEL      0.00     0  00:00      0.00    0.00    0.00
  CDT-152              CHANNEL      0.00     0  00:00      0.00    0.00    0.00
  CDT-156              CHANNEL      0.00     0  00:00      0.00    0.00    0.00
  CDT-160              CHANNEL      0.00     0  00:00      0.00    0.00    0.00
  CDT-164              CHANNEL      0.00     0  00:00      0.00    0.00    0.00
  CDT-168              CHANNEL      0.00     0  00:00      0.00    0.00    0.00
  CDT-172              CHANNEL      0.00     0  00:00      0.00    0.00    0.00
  CDT-176              CHANNEL      0.00     0  00:00      0.00    0.00    0.00
  CDT-180              CHANNEL      0.00     0  00:00      0.00    0.00    0.00
  CDT-184              CHANNEL      0.00     0  00:00      0.00    0.00    0.00
  CDT-188              CHANNEL      0.00     0  00:00      0.00    0.00    0.00
  CDT-192              CHANNEL      0.00     0  00:00      0.00    0.00    0.00
  CDT-196              CHANNEL      0.00     0  00:00      0.00    0.00    0.00
  CDT-200              CHANNEL      0.00     0  00:00      0.00    0.00    0.00
  CDT-204              CHANNEL      0.00     0  00:00      0.00    0.00    0.00
  CDT-208              CHANNEL      0.00     0  00:00      0.00    0.00    0.00
  CDT-212              CHANNEL      0.00     0  00:00      0.00    0.00    0.00
  CDT-216              CHANNEL      0.00     0  00:00      0.00    0.00    0.00
  CDT-220              CHANNEL      0.00     0  00:00      0.00    0.00    0.00
  CDT-224              CHANNEL      0.00     0  00:00      0.00    0.00    0.00
  CDT-226              CHANNEL      0.00     0  00:00      0.00    0.00    0.00
  CDT-228              CHANNEL      0.00     0  00:00      0.00    0.00    0.00
  CDT-236              CHANNEL      0.00     0  00:00      0.00    0.00    0.00
  CDT-240              CHANNEL      0.00     0  00:00      0.00    0.00    0.00
  CDT-244              CHANNEL      0.00     0  00:00      0.00    0.00    0.00
  CDT-248              CHANNEL      0.00     0  00:00      0.00    0.00    0.00
  CDT-252              CHANNEL      0.00     0  00:00      0.00    0.00    0.00
  CDT-256              CHANNEL      0.00     0  00:00      0.00    0.00    0.00
  CDT-260              CHANNEL      0.00     0  00:00      0.00    0.00    0.00
  CDT-264              CHANNEL      0.00     0  00:00      0.00    0.00    0.00
  CDT-266              CHANNEL      0.00     0  00:00      0.00    0.00    0.00
  CDT-268              CHANNEL      0.00     0  00:00      0.00    0.00    0.00
  CDT-270              CHANNEL      0.00     0  00:00      0.00    0.00    0.00
  CDT-272              CHANNEL      0.00     0  00:00      0.00    0.00    0.00
  CDT-276              CHANNEL      0.00     0  00:00      0.00    0.00    0.00
  CDT-278              CHANNEL      0.00     0  00:00      0.00    0.00    0.00
  CDT-280              CHANNEL      0.00     0  00:00      0.00    0.00    0.00
  CDT-284              CHANNEL      0.00     0  00:00      0.00    0.00    0.00
  CDT-286              CHANNEL      0.00     0  00:00      0.00    0.00    0.00
  CDT-292              CHANNEL      0.00     0  00:00      0.00    0.00    0.00
  CDT-296              CHANNEL      0.00     0  00:00      0.00    0.00    0.00
  CDT-298              CHANNEL      0.00     0  00:00      0.00    0.00    0.00
  CDT-300              CHANNEL      0.00     0  00:00      0.00    0.00    0.00
  CDT-302              CHANNEL      0.00     0  00:00      0.00    0.00    0.00
  CDT-304              CHANNEL      0.00     0  00:00      0.00    0.00    0.00
  CDT-308              CHANNEL      0.00     0  00:00      0.00    0.00    0.00
  CDT-312              CHANNEL      0.00     0  00:00      0.00    0.00    0.00
  CDT-316              CHANNEL      0.00     0  00:00      0.00    0.00    0.00
  CDT-318              CHANNEL      0.00     0  00:00      0.00    0.00    0.00
  CDT-320              CHANNEL      0.00     0  00:00      0.00    0.00    0.00
  CDT-324              CHANNEL      0.00     0  00:00      0.00    0.00    0.00
  CDT-328              CHANNEL      0.00     0  00:00      0.00    0.00    0.00
  CDT-330              CHANNEL      0.00     0  00:00      0.00    0.00    0.00
  CDT-332              CHANNEL      0.00     0  00:00      0.00    0.00    0.00
  CDT-336              CHANNEL      0.00     0  00:00      0.00    0.00    0.00
  CDT-340              CHANNEL      0.00     0  00:00      0.00    0.00    0.00
  CDT-344              CHANNEL      0.00     0  00:00      0.00    0.00    0.00
  CDT-348              CHANNEL      0.00     0  00:00      0.00    0.00    0.00
  CDT-352              CHANNEL      0.00     0  00:00      0.00    0.00    0.00
  CDT-356              CHANNEL      0.00     0  00:00      0.00    0.00    0.00
  CDT-360              CHANNEL      0.00     0  00:00      0.00    0.00    0.00
  CDT-364              CHANNEL      0.00     0  00:00      0.00    0.00    0.00
  CDT-368              CHANNEL      0.00     0  00:00      0.00    0.00    0.00
  CDT-372              CHANNEL      0.00     0  00:00      0.00    0.00    0.00
  CDT-376              CHANNEL      0.00     0  00:00      0.00    0.00    0.00
  CDT-380              CHANNEL      0.00     0  00:00      0.00    0.00    0.00
  CDT-382              CHANNEL      0.00     0  00:00      0.00    0.00    0.00
  CDT-384              CHANNEL      0.00     0  00:00      0.00    0.00    0.00
  CDT-395              CONDUIT      0.00     0  00:00      0.00    0.00    0.00
  CDT-400              CHANNEL      0.00     0  00:00      0.00    0.00    0.00
  CDT-404              CHANNEL      0.00     0  00:00      0.00    0.00    0.00
  CDT-408              CHANNEL      0.00     0  00:00      0.00    0.00    0.00
  CDT-412              CHANNEL      0.00     0  00:00      0.00    0.00    0.00
  CDT-414              CHANNEL      0.00     0  00:00      0.00    0.00    0.00
  CDT-416              CHANNEL      0.00     0  00:00      0.00    0.00    0.00
  CDT-420              CHANNEL      0.00     0  00:00      0.00    0.00    0.00
  CDT-424              CHANNEL      0.00     0  00:00      0.00    0.00    0.00
  CDT-428              CHANNEL      0.00     0  00:00      0.00    0.00    0.00
  CDT-432              CHANNEL      0.00     0  00:00      0.00    0.00    0.00
  CDT-436              CHANNEL      0.00     0  00:00      0.00    0.00    0.00
  CDT-438              CHANNEL      0.00     0  00:00      0.00    0.00    0.00
  CDT-440              CHANNEL      0.00     0  00:00      0.00    0.00    0.00
  CDT-444              CHANNEL      0.00     0  00:00      0.00    0.00    0.00
  CDT-446              CHANNEL      0.00     0  00:00      0.00    0.00    0.00
  CDT-448              CHANNEL      0.00     0  00:00      0.00    0.00    0.00
  CDT-456              CHANNEL      0.00     0  00:00      0.00    0.00    0.00
  CDT-460              CHANNEL      0.00     0  00:00      0.00    0.00    0.00
  CDT-464              CHANNEL      0.00     0  00:00      0.00    0.00    0.00
  CDT-468              CHANNEL      0.00     0  00:00      0.00    0.00    0.00
  CDT-472              CHANNEL      0.00     0  00:00      0.00    0.00    0.00
  CDT-476              CHANNEL      0.00     0  00:00      0.00    0.00    0.00
  CDT-478              CHANNEL      0.00     0  00:00      0.00    0.00    0.00
  CDT-480              CHANNEL      0.00     0  00:00      0.00    0.00    0.00
  CDT-482              CHANNEL      0.00     0  00:00      0.00    0.00    0.00
  CDT-484              CHANNEL      0.00     0  00:00      0.00    0.00    0.00
  CDT-486              CONDUIT      0.00     0  00:00      0.00    0.00    0.00
  CDT-488              CHANNEL      0.00     0  00:00      0.00    0.00    0.00
  CDT-490              CONDUIT      0.00     0  00:00      0.00    0.00    0.00
  CDT-492              CHANNEL      0.00     0  00:00      0.00    0.00    0.00
  CDT-495              CONDUIT      0.00     0  00:00      0.00    0.00    0.00
  CDT-496              CHANNEL      0.00     0  00:00      0.00    0.00    0.00
  CDT-500              CHANNEL      0.00     0  00:00      0.00    0.00    0.00
  CDT-504              CHANNEL      0.00     0  00:00      0.00    0.00    0.00
  CDT-508              CHANNEL      0.00     0  00:00      0.00    0.00    0.00
  CDT-512              CHANNEL      0.00     0  00:00      0.00    0.00    0.00
  CDT-514              CONDUIT      0.00     0  00:00      0.00    0.00    0.00
  CDT-516              CHANNEL      0.00     0  00:00      0.00    0.00    0.00
  CDT-518              CHANNEL      0.00     0  00:00      0.00    0.00    0.00
  CDT-520              CHANNEL      0.00     0  00:00      0.00    0.00    0.00
  CDT-524              CHANNEL      0.00     0  00:00      0.00    0.00    0.00
  CDT-526              CHANNEL      0.00     0  00:00      0.00    0.00    0.00
  CDT-528              CHANNEL      0.00     0  00:00      0.00    0.00    0.00
  CDT-530              CHANNEL      0.00     0  00:00      0.00    0.00    0.00
  CDT-532              CHANNEL      0.00     0  00:00      0.00    0.00    0.00
  CDT-534              CHANNEL      0.00     0  00:00      0.00    0.00    0.00
  CDT-535              CHANNEL      0.00     0  00:00      0.00    0.00    0.00
  CDT-536              CHANNEL      0.00     0  00:00      0.00    0.00    0.00
  CDT-540              CHANNEL      0.00     0  00:00      0.00    0.00    0.00
  CDT-542              CHANNEL      0.00     0  00:00      0.00    0.00    0.00
  CDT-543              CHANNEL      0.00     0  00:00      0.00    0.00    0.00
  CDT-544              CHANNEL      0.00     0  00:00      0.00    0.00    0.00
  CDT-545              CHANNEL      0.00     0  00:00      0.00    0.00    0.00
  CDT-546              CHANNEL      0.00     0  00:00      0.00    0.00    0.00
  CDT-548              CHANNEL      0.00     0  00:00      0.00    0.00    0.00
  CDT-550              CHANNEL      0.00     0  00:00      0.00    0.00    0.00
  CDT-551              CHANNEL      0.00     0  00:00      0.00    0.00    0.00
  CDT-552              CHANNEL      0.00     0  00:00      0.00    0.00    0.00
  CDT-553              CHANNEL      0.00     0  00:00      0.00    0.00    0.00
  CDT-554              CHANNEL      0.00     0  00:00      0.00    0.00    0.00
  CDT-555              CHANNEL      0.00     0  00:00      0.00    0.00    0.00
  CDT-556              CHANNEL      0.00     0  00:00      0.00    0.00    0.00
  CDT-557              CHANNEL      0.00     0  00:00      0.00    0.00    0.00
  CDT-558              CHANNEL      0.00     0  00:00      0.00    0.00    0.00
  CDT-559              CHANNEL      0.00     0  00:00      0.00    0.00    0.00
  CDT-560              CHANNEL      0.00     0  00:00      0.00    0.00    0.00
  CDT-561              CONDUIT      0.00     0  00:00      0.00    0.00    0.00
  CDT-562              CHANNEL      0.00     0  00:00      0.00    0.00    0.00
  CDT-563              CHANNEL      0.00     0  00:00      0.00    0.00    0.00
  CDT-564              CHANNEL      0.00     0  00:00      0.00    0.00    0.00
  CDT-565              CHANNEL      0.00     0  00:00      0.00    0.00    0.00
  CDT-566              CHANNEL      0.00     0  00:00      0.00    0.00    0.00
  CDT-568              CHANNEL      0.00     0  00:00      0.00    0.00    0.00
  CDT-569              CHANNEL      0.00     0  00:00      0.00    0.00    0.00
  CDT-570              CHANNEL      0.00     0  00:00      0.00    0.00    0.00
  CDT-574              CHANNEL      0.00     0  00:00      0.00    0.00    0.00
  CDT-576              CHANNEL      0.00     0  00:00      0.00    0.00    0.00
  CDT-578              CONDUIT      0.00     0  00:00      0.00    0.00    0.00
  CDT-580              CHANNEL      0.00     0  00:00      0.00    0.00    0.00
  CDT-584              CONDUIT      0.00     0  00:00      0.00    0.00    0.00
  CDT-588              CONDUIT      0.00     0  00:00      0.00    0.00    0.00
  CDT-592              CONDUIT      0.00     0  00:00      0.00    0.00    0.00
  CDT-596              CONDUIT      0.00     0  00:00      0.00    0.00    0.00
  CDT-600              CONDUIT      0.00     0  00:00      0.00    0.00    0.00
  CDT-604              CONDUIT      0.00     0  00:00      0.00    0.00    0.00
  CDT-608              CONDUIT      0.00     0  00:00      0.00    0.00    0.00
  CDT-612              CONDUIT      0.00     0  00:00      0.00    0.00    0.00
  CDT-614              CHANNEL      0.00     0  00:00      0.00    0.00    0.00
  CDT-620              CONDUIT      0.00     0  00:00      0.00    0.00    0.00
  CDT-625              CONDUIT      0.00     0  00:00      0.00    0.00    0.00
  CDT-628              CONDUIT      0.00     0  00:00      0.00    0.00    0.00
  CDT-630              CONDUIT      0.00     0  00:00      0.00    0.00    0.00
  CDT-634              CONDUIT      0.00     0  00:00      0.00    0.00    0.00
  CDT-635              CONDUIT      0.00     0  00:00      0.00    0.00    0.00
  CDT-636              CONDUIT      0.00     0  00:00      0.00    0.00    0.00
  CDT-642              CONDUIT      0.00     0  00:00      0.00    0.00    0.00
  CDT-646              CONDUIT      0.00     0  00:00      0.00    0.00    0.00
  CDT-648              CONDUIT      0.00     0  00:00      0.00    0.00    0.00
  CDT-650              CONDUIT      0.00     0  00:00      0.00    0.00    0.00
  CDT-652              CONDUIT      0.00     0  00:00      0.00    0.00    0.00
  CDT-654              CONDUIT      0.00     0  00:00      0.00    0.00    0.00
  CDT-658              CONDUIT      0.00     0  00:00      0.00    0.00    0.00
  CDT-662              CONDUIT      0.00     0  00:00      0.00    0.00    0.00
  CDT-664              CONDUIT      0.00     0  00:00      0.00    0.00    0.00
  CDT-666              CONDUIT      0.00     0  00:00      0.00    0.00    0.00
  OLET-101             DUMMY        0.00     0  00:00
  OLET-102             DUMMY        0.00     0  00:00
  OLET-103             DUMMY        0.00     0  00:00
  OLET-104             DUMMY        0.00     0  00:00
  OLET-105             DUMMY        0.00     0  00:00
  OLET-106             DUMMY        0.00     0  00:00
  OLET-107             DUMMY        0.00     0  00:00
  OLET-108             DUMMY        0.00     0  00:00
  OLET-109             DUMMY        0.00     0  00:00
  OLET-110             DUMMY        0.00     0  00:00
  OLET-111             DUMMY        0.00     0  00:00
  OLET-112             DUMMY        0.00     0  00:00
  OLET-113             DUMMY        0.00     0  00:00
  OLET-114             DUMMY        0.00     0  00:00
  OLET-115             DUMMY        0.00     0  00:00
  OLET-116             DUMMY        0.00     0  00:00
  OLET-117             DUMMY        0.00     0  00:00
  OLET-118             DUMMY        0.00     0  00:00
[...]
  CDT-244                 1.00   -nan(ind)  -nan(ind)  -nan(ind)  -nan(ind)  -nan(ind)  -nan(ind)  -nan(ind)  -nan(ind)  -nan(ind)
  CDT-248                 1.00   -nan(ind)  -nan(ind)  -nan(ind)  -nan(ind)  -nan(ind)  -nan(ind)  -nan(ind)  -nan(ind)  -nan(ind)
  CDT-252                 1.00   -nan(ind)  -nan(ind)  -nan(ind)  -nan(ind)  -nan(ind)  -nan(ind)  -nan(ind)  -nan(ind)  -nan(ind)
  CDT-256                 3.38   -nan(ind)  -nan(ind)  -nan(ind)  -nan(ind)  -nan(ind)  -nan(ind)  -nan(ind)  -nan(ind)  -nan(ind)
  CDT-260                 1.00   -nan(ind)  -nan(ind)  -nan(ind)  -nan(ind)  -nan(ind)  -nan(ind)  -nan(ind)  -nan(ind)  -nan(ind)
  CDT-264                 1.19   -nan(ind)  -nan(ind)  -nan(ind)  -nan(ind)  -nan(ind)  -nan(ind)  -nan(ind)  -nan(ind)  -nan(ind)
  CDT-266                 9.01   -nan(ind)  -nan(ind)  -nan(ind)  -nan(ind)  -nan(ind)  -nan(ind)  -nan(ind)  -nan(ind)  -nan(ind)
  CDT-268                 1.00   -nan(ind)  -nan(ind)  -nan(ind)  -nan(ind)  -nan(ind)  -nan(ind)  -nan(ind)  -nan(ind)  -nan(ind)
  CDT-270                 1.00   -nan(ind)  -nan(ind)  -nan(ind)  -nan(ind)  -nan(ind)  -nan(ind)  -nan(ind)  -nan(ind)  -nan(ind)
  CDT-272                 2.71   -nan(ind)  -nan(ind)  -nan(ind)  -nan(ind)  -nan(ind)  -nan(ind)  -nan(ind)  -nan(ind)  -nan(ind)
  CDT-276                 1.00   -nan(ind)  -nan(ind)  -nan(ind)  -nan(ind)  -nan(ind)  -nan(ind)  -nan(ind)  -nan(ind)  -nan(ind)
  CDT-278                 1.00   -nan(ind)  -nan(ind)  -nan(ind)  -nan(ind)  -nan(ind)  -nan(ind)  -nan(ind)  -nan(ind)  -nan(ind)
  CDT-280                 1.24   -nan(ind)  -nan(ind)  -nan(ind)  -nan(ind)  -nan(ind)  -nan(ind)  -nan(ind)  -nan(ind)  -nan(ind)
  CDT-284                 1.00   -nan(ind)  -nan(ind)  -nan(ind)  -nan(ind)  -nan(ind)  -nan(ind)  -nan(ind)  -nan(ind)  -nan(ind)
  CDT-286                 1.00   -nan(ind)  -nan(ind)  -nan(ind)  -nan(ind)  -nan(ind)  -nan(ind)  -nan(ind)  -nan(ind)  -nan(ind)
  CDT-292                 1.00   -nan(ind)  -nan(ind)  -nan(ind)  -nan(ind)  -nan(ind)  -nan(ind)  -nan(ind)  -nan(ind)  -nan(ind)
  CDT-296                 1.00   -nan(ind)  -nan(ind)  -nan(ind)  -nan(ind)  -nan(ind)  -nan(ind)  -nan(ind)  -nan(ind)  -nan(ind)
  CDT-298                 3.38   -nan(ind)  -nan(ind)  -nan(ind)  -nan(ind)  -nan(ind)  -nan(ind)  -nan(ind)  -nan(ind)  -nan(ind)
  CDT-300                 1.00   -nan(ind)  -nan(ind)  -nan(ind)  -nan(ind)  -nan(ind)  -nan(ind)  -nan(ind)  -nan(ind)  -nan(ind)
  CDT-302                 3.49   -nan(ind)  -nan(ind)  -nan(ind)  -nan(ind)  -nan(ind)  -nan(ind)  -nan(ind)  -nan(ind)  -nan(ind)
  CDT-304                 1.00   -nan(ind)  -nan(ind)  -nan(ind)  -nan(ind)  -nan(ind)  -nan(ind)  -nan(ind)  -nan(ind)  -nan(ind)
  CDT-308                 3.81   -nan(ind)  -nan(ind)  -nan(ind)  -nan(ind)  -nan(ind)  -nan(ind)  -nan(ind)  -nan(ind)  -nan(ind)
  CDT-312                 1.00   -nan(ind)  -nan(ind)  -nan(ind)  -nan(ind)  -nan(ind)  -nan(ind)  -nan(ind)  -nan(ind)  -nan(ind)
  CDT-316                 1.00   -nan(ind)  -nan(ind)  -nan(ind)  -nan(ind)  -nan(ind)  -nan(ind)  -nan(ind)  -nan(ind)  -nan(ind)
  CDT-318                 3.90   -nan(ind)  -nan(ind)  -nan(ind)  -nan(ind)  -nan(ind)  -nan(ind)  -nan(ind)  -nan(ind)  -nan(ind)
  CDT-320                 3.61   -nan(ind)  -nan(ind)  -nan(ind)  -nan(ind)  -nan(ind)  -nan(ind)  -nan(ind)  -nan(ind)  -nan(ind)
  CDT-324                 1.00   -nan(ind)  -nan(ind)  -nan(ind)  -nan(ind)  -nan(ind)  -nan(ind)  -nan(ind)  -nan(ind)  -nan(ind)
  CDT-328                 1.00   -nan(ind)  -nan(ind)  -nan(ind)  -nan(ind)  -nan(ind)  -nan(ind)  -nan(ind)  -nan(ind)  -nan(ind)
  CDT-330                 3.59   -nan(ind)  -nan(ind)  -nan(ind)  -nan(ind)  -nan(ind)  -nan(ind)  -nan(ind)  -nan(ind)  -nan(ind)
  CDT-332                 1.64   -nan(ind)  -nan(ind)  -nan(ind)  -nan(ind)  -nan(ind)  -nan(ind)  -nan(ind)  -nan(ind)  -nan(ind)
  CDT-336                 1.82   -nan(ind)  -nan(ind)  -nan(ind)  -nan(ind)  -nan(ind)  -nan(ind)  -nan(ind)  -nan(ind)  -nan(ind)
  CDT-340                 1.00   -nan(ind)  -nan(ind)  -nan(ind)  -nan(ind)  -nan(ind)  -nan(ind)  -nan(ind)  -nan(ind)  -nan(ind)
  CDT-344                 1.00   -nan(ind)  -nan(ind)  -nan(ind)  -nan(ind)  -nan(ind)  -nan(ind)  -nan(ind)  -nan(ind)  -nan(ind)
  CDT-348                 1.32   -nan(ind)  -nan(ind)  -nan(ind)  -nan(ind)  -nan(ind)  -nan(ind)  -nan(ind)  -nan(ind)  -nan(ind)
  CDT-352                 1.00   -nan(ind)  -nan(ind)  -nan(ind)  -nan(ind)  -nan(ind)  -nan(ind)  -nan(ind)  -nan(ind)  -nan(ind)
  CDT-356                 1.00   -nan(ind)  -nan(ind)  -nan(ind)  -nan(ind)  -nan(ind)  -nan(ind)  -nan(ind)  -nan(ind)  -nan(ind)
  CDT-360                 1.00   -nan(ind)  -nan(ind)  -nan(ind)  -nan(ind)  -nan(ind)  -nan(ind)  -nan(ind)  -nan(ind)  -nan(ind)
  CDT-364                 1.00   -nan(ind)  -nan(ind)  -nan(ind)  -nan(ind)  -nan(ind)  -nan(ind)  -nan(ind)  -nan(ind)  -nan(ind)
  CDT-368                 1.00   -nan(ind)  -nan(ind)  -nan(ind)  -nan(ind)  -nan(ind)  -nan(ind)  -nan(ind)  -nan(ind)  -nan(ind)
  CDT-372                 4.17   -nan(ind)  -nan(ind)  -nan(ind)  -nan(ind)  -nan(ind)  -nan(ind)  -nan(ind)  -nan(ind)  -nan(ind)
  CDT-376                 1.00   -nan(ind)  -nan(ind)  -nan(ind)  -nan(ind)  -nan(ind)  -nan(ind)  -nan(ind)  -nan(ind)  -nan(ind)
  CDT-380                 1.36   -nan(ind)  -nan(ind)  -nan(ind)  -nan(ind)  -nan(ind)  -nan(ind)  -nan(ind)  -nan(ind)  -nan(ind)
  CDT-382                 1.00   -nan(ind)  -nan(ind)  -nan(ind)  -nan(ind)  -nan(ind)  -nan(ind)  -nan(ind)  -nan(ind)  -nan(ind)
  CDT-384                 1.00   -nan(ind)  -nan(ind)  -nan(ind)  -nan(ind)  -nan(ind)  -nan(ind)  -nan(ind)  -nan(ind)  -nan(ind)
  CDT-395                 1.69   -nan(ind)  -nan(ind)  -nan(ind)  -nan(ind)  -nan(ind)  -nan(ind)  -nan(ind)  -nan(ind)  -nan(ind)
  CDT-400                 1.00   -nan(ind)  -nan(ind)  -nan(ind)  -nan(ind)  -nan(ind)  -nan(ind)  -nan(ind)  -nan(ind)  -nan(ind)
  CDT-404                 2.05   -nan(ind)  -nan(ind)  -nan(ind)  -nan(ind)  -nan(ind)  -nan(ind)  -nan(ind)  -nan(ind)  -nan(ind)
  CDT-408                 1.00   -nan(ind)  -nan(ind)  -nan(ind)  -nan(ind)  -nan(ind)  -nan(ind)  -nan(ind)  -nan(ind)  -nan(ind)
  CDT-412                 2.47   -nan(ind)  -nan(ind)  -nan(ind)  -nan(ind)  -nan(ind)  -nan(ind)  -nan(ind)  -nan(ind)  -nan(ind)
  CDT-414                 1.00   -nan(ind)  -nan(ind)  -nan(ind)  -nan(ind)  -nan(ind)  -nan(ind)  -nan(ind)  -nan(ind)  -nan(ind)
  CDT-416                 1.00   -nan(ind)  -nan(ind)  -nan(ind)  -nan(ind)  -nan(ind)  -nan(ind)  -nan(ind)  -nan(ind)  -nan(ind)
  CDT-420                 1.00   -nan(ind)  -nan(ind)  -nan(ind)  -nan(ind)  -nan(ind)  -nan(ind)  -nan(ind)  -nan(ind)  -nan(ind)
  CDT-424                 1.00   -nan(ind)  -nan(ind)  -nan(ind)  -nan(ind)  -nan(ind)  -nan(ind)  -nan(ind)  -nan(ind)  -nan(ind)
  CDT-428                 1.00   -nan(ind)  -nan(ind)  -nan(ind)  -nan(ind)  -nan(ind)  -nan(ind)  -nan(ind)  -nan(ind)  -nan(ind)
  CDT-432                 1.00   -nan(ind)  -nan(ind)  -nan(ind)  -nan(ind)  -nan(ind)  -nan(ind)  -nan(ind)  -nan(ind)  -nan(ind)
  CDT-436                 1.00   -nan(ind)  -nan(ind)  -nan(ind)  -nan(ind)  -nan(ind)  -nan(ind)  -nan(ind)  -nan(ind)  -nan(ind)
  CDT-438                 3.70   -nan(ind)  -nan(ind)  -nan(ind)  -nan(ind)  -nan(ind)  -nan(ind)  -nan(ind)  -nan(ind)  -nan(ind)
  CDT-440                 3.46   -nan(ind)  -nan(ind)  -nan(ind)  -nan(ind)  -nan(ind)  -nan(ind)  -nan(ind)  -nan(ind)  -nan(ind)
  CDT-444                 1.00   -nan(ind)  -nan(ind)  -nan(ind)  -nan(ind)  -nan(ind)  -nan(ind)  -nan(ind)  -nan(ind)  -nan(ind)
  CDT-446                 2.61   -nan(ind)  -nan(ind)  -nan(ind)  -nan(ind)  -nan(ind)  -nan(ind)  -nan(ind)  -nan(ind)  -nan(ind)
  CDT-448                 1.00   -nan(ind)  -nan(ind)  -nan(ind)  -nan(ind)  -nan(ind)  -nan(ind)  -nan(ind)  -nan(ind)  -nan(ind)
  CDT-456                 1.00   -nan(ind)  -nan(ind)  -nan(ind)  -nan(ind)  -nan(ind)  -nan(ind)  -nan(ind)  -nan(ind)  -nan(ind)
  CDT-460                 1.00   -nan(ind)  -nan(ind)  -nan(ind)  -nan(ind)  -nan(ind)  -nan(ind)  -nan(ind)  -nan(ind)  -nan(ind)
  CDT-464                 4.13   -nan(ind)  -nan(ind)  -nan(ind)  -nan(ind)  -nan(ind)  -nan(ind)  -nan(ind)  -nan(ind)  -nan(ind)
  CDT-468                 1.00   -nan(ind)  -nan(ind)  -nan(ind)  -nan(ind)  -nan(ind)  -nan(ind)  -nan(ind)  -nan(ind)  -nan(ind)
  CDT-472                 1.00   -nan(ind)  -nan(ind)  -nan(ind)  -nan(ind)  -nan(ind)  -nan(ind)  -nan(ind)  -nan(ind)  -nan(ind)
  CDT-476                 2.88   -nan(ind)  -nan(ind)  -nan(ind)  -nan(ind)  -nan(ind)  -nan(ind)  -nan(ind)  -nan(ind)  -nan(ind)
  CDT-478                 1.00   -nan(ind)  -nan(ind)  -nan(ind)  -nan(ind)  -nan(ind)  -nan(ind)  -nan(ind)  -nan(ind)  -nan(ind)
  CDT-480                 1.00   -nan(ind)  -nan(ind)  -nan(ind)  -nan(ind)  -nan(ind)  -nan(ind)  -nan(ind)  -nan(ind)  -nan(ind)
  CDT-482                 1.23   -nan(ind)  -nan(ind)  -nan(ind)  -nan(ind)  -nan(ind)  -nan(ind)  -nan(ind)  -nan(ind)  -nan(ind)
  CDT-484                 1.00   -nan(ind)  -nan(ind)  -nan(ind)  -nan(ind)  -nan(ind)  -nan(ind)  -nan(ind)  -nan(ind)  -nan(ind)
  CDT-486                 1.07   -nan(ind)  -nan(ind)  -nan(ind)  -nan(ind)  -nan(ind)  -nan(ind)  -nan(ind)  -nan(ind)  -nan(ind)
  CDT-488                 1.00   -nan(ind)  -nan(ind)  -nan(ind)  -nan(ind)  -nan(ind)  -nan(ind)  -nan(ind)  -nan(ind)  -nan(ind)
  CDT-490                 1.00   -nan(ind)  -nan(ind)  -nan(ind)  -nan(ind)  -nan(ind)  -nan(ind)  -nan(ind)  -nan(ind)  -nan(ind)
  CDT-492                 1.13   -nan(ind)  -nan(ind)  -nan(ind)  -nan(ind)  -nan(ind)  -nan(ind)  -nan(ind)  -nan(ind)  -nan(ind)
  CDT-495                 1.00   -nan(ind)  -nan(ind)  -nan(ind)  -nan(ind)  -nan(ind)  -nan(ind)  -nan(ind)  -nan(ind)  -nan(ind)
  CDT-496                 4.53   -nan(ind)  -nan(ind)  -nan(ind)  -nan(ind)  -nan(ind)  -nan(ind)  -nan(ind)  -nan(ind)  -nan(ind)
  CDT-500                 1.51   -nan(ind)  -nan(ind)  -nan(ind)  -nan(ind)  -nan(ind)  -nan(ind)  -nan(ind)  -nan(ind)  -nan(ind)
  CDT-504                 1.00   -nan(ind)  -nan(ind)  -nan(ind)  -nan(ind)  -nan(ind)  -nan(ind)  -nan(ind)  -nan(ind)  -nan(ind)
  CDT-508                 1.00   -nan(ind)  -nan(ind)  -nan(ind)  -nan(ind)  -nan(ind)  -nan(ind)  -nan(ind)  -nan(ind)  -nan(ind)
  CDT-512                 1.00   -nan(ind)  -nan(ind)  -nan(ind)  -nan(ind)  -nan(ind)  -nan(ind)  -nan(ind)  -nan(ind)  -nan(ind)
  CDT-514                13.58   -nan(ind)  -nan(ind)  -nan(ind)  -nan(ind)  -nan(ind)  -nan(ind)  -nan(ind)  -nan(ind)  -nan(ind)
  CDT-516                 1.00   -nan(ind)  -nan(ind)  -nan(ind)  -nan(ind)  -nan(ind)  -nan(ind)  -nan(ind)  -nan(ind)  -nan(ind)
  CDT-518                 4.17   -nan(ind)  -nan(ind)  -nan(ind)  -nan(ind)  -nan(ind)  -nan(ind)  -nan(ind)  -nan(ind)  -nan(ind)
  CDT-520                 1.00   -nan(ind)  -nan(ind)  -nan(ind)  -nan(ind)  -nan(ind)  -nan(ind)  -nan(ind)  -nan(ind)  -nan(ind)
  CDT-524                 1.00   -nan(ind)  -nan(ind)  -nan(ind)  -nan(ind)  -nan(ind)  -nan(ind)  -nan(ind)  -nan(ind)  -nan(ind)
  CDT-526                 1.00   -nan(ind)  -nan(ind)  -nan(ind)  -nan(ind)  -nan(ind)  -nan(ind)  -nan(ind)  -nan(ind)  -nan(ind)
  CDT-528                 1.00   -nan(ind)  -nan(ind)  -nan(ind)  -nan(ind)  -nan(ind)  -nan(ind)  -nan(ind)  -nan(ind)  -nan(ind)
  CDT-530                 1.00   -nan(ind)  -nan(ind)  -nan(ind)  -nan(ind)  -nan(ind)  -nan(ind)  -nan(ind)  -nan(ind)  -nan(ind)
  CDT-532                 4.19   -nan(ind)  -nan(ind)  -nan(ind)  -nan(ind)  -nan(ind)  -nan(ind)  -nan(ind)  -nan(ind)  -nan(ind)
  CDT-534                 1.00   -nan(ind)  -nan(ind)  -nan(ind)  -nan(ind)  -nan(ind)  -nan(ind)  -nan(ind)  -nan(ind)  -nan(ind)
  CDT-535                 1.00   -nan(ind)  -nan(ind)  -nan(ind)  -nan(ind)  -nan(ind)  -nan(ind)  -nan(ind)  -nan(ind)  -nan(ind)
  CDT-536                 1.00   -nan(ind)  -nan(ind)  -nan(ind)  -nan(ind)  -nan(ind)  -nan(ind)  -nan(ind)  -nan(ind)  -nan(ind)
  CDT-540                 1.00   -nan(ind)  -nan(ind)  -nan(ind)  -nan(ind)  -nan(ind)  -nan(ind)  -nan(ind)  -nan(ind)  -nan(ind)
  CDT-542                 2.69   -nan(ind)  -nan(ind)  -nan(ind)  -nan(ind)  -nan(ind)  -nan(ind)  -nan(ind)  -nan(ind)  -nan(ind)
  CDT-543                 2.79   -nan(ind)  -nan(ind)  -nan(ind)  -nan(ind)  -nan(ind)  -nan(ind)  -nan(ind)  -nan(ind)  -nan(ind)
  CDT-544                 1.00   -nan(ind)  -nan(ind)  -nan(ind)  -nan(ind)  -nan(ind)  -nan(ind)  -nan(ind)  -nan(ind)  -nan(ind)
  CDT-545                 2.29   -nan(ind)  -nan(ind)  -nan(ind)  -nan(ind)  -nan(ind)  -nan(ind)  -nan(ind)  -nan(ind)  -nan(ind)
  CDT-546                 1.00   -nan(ind)  -nan(ind)  -nan(ind)  -nan(ind)  -nan(ind)  -nan(ind)  -nan(ind)  -nan(ind)  -nan(ind)
  CDT-548                 1.00   -nan(ind)  -nan(ind)  -nan(ind)  -nan(ind)  -nan(ind)  -nan(ind)  -nan(ind)  -nan(ind)  -nan(ind)
  CDT-550                 4.66   -nan(ind)  -nan(ind)  -nan(ind)  -nan(ind)  -nan(ind)  -nan(ind)  -nan(ind)  -nan(ind)  -nan(ind)
  CDT-551                 1.00   -nan(ind)  -nan(ind)  -nan(ind)  -nan(ind)  -nan(ind)  -nan(ind)  -nan(ind)  -nan(ind)  -nan(ind)
  CDT-552                 1.00   -nan(ind)  -nan(ind)  -nan(ind)  -nan(ind)  -nan(ind)  -nan(ind)  -nan(ind)  -nan(ind)  -nan(ind)
  CDT-553                 1.00   -nan(ind)  -nan(ind)  -nan(ind)  -nan(ind)  -nan(ind)  -nan(ind)  -nan(ind)  -nan(ind)  -nan(ind)
  CDT-554                 1.00   -nan(ind)  -nan(ind)  -nan(ind)  -nan(ind)  -nan(ind)  -nan(ind)  -nan(ind)  -nan(ind)  -nan(ind)
  CDT-555                 1.00   -nan(ind)  -nan(ind)  -nan(ind)  -nan(ind)  -nan(ind)  -nan(ind)  -nan(ind)  -nan(ind)  -nan(ind)
  CDT-556                 3.91   -nan(ind)  -nan(ind)  -nan(ind)  -nan(ind)  -nan(ind)  -nan(ind)  -nan(ind)  -nan(ind)  -nan(ind)
  CDT-557                 2.67   -nan(ind)  -nan(ind)  -nan(ind)  -nan(ind)  -nan(ind)  -nan(ind)  -nan(ind)  -nan(ind)  -nan(ind)
  CDT-558                 3.28   -nan(ind)  -nan(ind)  -nan(ind)  -nan(ind)  -nan(ind)  -nan(ind)  -nan(ind)  -nan(ind)  -nan(ind)
  CDT-559                 1.30   -nan(ind)  -nan(ind)  -nan(ind)  -nan(ind)  -nan(ind)  -nan(ind)  -nan(ind)  -nan(ind)  -nan(ind)
  CDT-560                 1.00   -nan(ind)  -nan(ind)  -nan(ind)  -nan(ind)  -nan(ind)  -nan(ind)  -nan(ind)  -nan(ind)  -nan(ind)
  CDT-561                 1.00   -nan(ind)  -nan(ind)  -nan(ind)  -nan(ind)  -nan(ind)  -nan(ind)  -nan(ind)  -nan(ind)  -nan(ind)
  CDT-562                 1.43   -nan(ind)  -nan(ind)  -nan(ind)  -nan(ind)  -nan(ind)  -nan(ind)  -nan(ind)  -nan(ind)  -nan(ind)
  CDT-563                 1.32   -nan(ind)  -nan(ind)  -nan(ind)  -nan(ind)  -nan(ind)  -nan(ind)  -nan(ind)  -nan(ind)  -nan(ind)
  CDT-564                 3.70   -nan(ind)  -nan(ind)  -nan(ind)  -nan(ind)  -nan(ind)  -nan(ind)  -nan(ind)  -nan(ind)  -nan(ind)
  CDT-565                 3.32   -nan(ind)  -nan(ind)  -nan(ind)  -nan(ind)  -nan(ind)  -nan(ind)  -nan(ind)  -nan(ind)  -nan(ind)
  CDT-566                 1.00   -nan(ind)  -nan(ind)  -nan(ind)  -nan(ind)  -nan(ind)  -nan(ind)  -nan(ind)  -nan(ind)  -nan(ind)
  CDT-568                 1.08   -nan(ind)  -nan(ind)  -nan(ind)  -nan(ind)  -nan(ind)  -nan(ind)  -nan(ind)  -nan(ind)  -nan(ind)
  CDT-569                 1.04   -nan(ind)  -nan(ind)  -nan(ind)  -nan(ind)  -nan(ind)  -nan(ind)  -nan(ind)  -nan(ind)  -nan(ind)
  CDT-570                 3.87   -nan(ind)  -nan(ind)  -nan(ind)  -nan(ind)  -nan(ind)  -nan(ind)  -nan(ind)  -nan(ind)  -nan(ind)
  CDT-574                 1.00   -nan(ind)  -nan(ind)  -nan(ind)  -nan(ind)  -nan(ind)  -nan(ind)  -nan(ind)  -nan(ind)  -nan(ind)
  CDT-576                 1.00   -nan(ind)  -nan(ind)  -nan(ind)  -nan(ind)  -nan(ind)  -nan(ind)  -nan(ind)  -nan(ind)  -nan(ind)
  CDT-578                 1.25   -nan(ind)  -nan(ind)  -nan(ind)  -nan(ind)  -nan(ind)  -nan(ind)  -nan(ind)  -nan(ind)  -nan(ind)
  CDT-580                 1.00   -nan(ind)  -nan(ind)  -nan(ind)  -nan(ind)  -nan(ind)  -nan(ind)  -nan(ind)  -nan(ind)  -nan(ind)
  CDT-584                 1.00   -nan(ind)  -nan(ind)  -nan(ind)  -nan(ind)  -nan(ind)  -nan(ind)  -nan(ind)  -nan(ind)  -nan(ind)
  CDT-588                 1.00   -nan(ind)  -nan(ind)  -nan(ind)  -nan(ind)  -nan(ind)  -nan(ind)  -nan(ind)  -nan(ind)  -nan(ind)
  CDT-592                 1.00   -nan(ind)  -nan(ind)  -nan(ind)  -nan(ind)  -nan(ind)  -nan(ind)  -nan(ind)  -nan(ind)  -nan(ind)
  CDT-596                 1.00   -nan(ind)  -nan(ind)  -nan(ind)  -nan(ind)  -nan(ind)  -nan(ind)  -nan(ind)  -nan(ind)  -nan(ind)
  CDT-600                 1.00   -nan(ind)  -nan(ind)  -nan(ind)  -nan(ind)  -nan(ind)  -nan(ind)  -nan(ind)  -nan(ind)  -nan(ind)
  CDT-604                 1.00   -nan(ind)  -nan(ind)  -nan(ind)  -nan(ind)  -nan(ind)  -nan(ind)  -nan(ind)  -nan(ind)  -nan(ind)
  CDT-608                 1.00   -nan(ind)  -nan(ind)  -nan(ind)  -nan(ind)  -nan(ind)  -nan(ind)  -nan(ind)  -nan(ind)  -nan(ind)
  CDT-612                 1.00   -nan(ind)  -nan(ind)  -nan(ind)  -nan(ind)  -nan(ind)  -nan(ind)  -nan(ind)  -nan(ind)  -nan(ind)
  CDT-614                 1.00   -nan(ind)  -nan(ind)  -nan(ind)  -nan(ind)  -nan(ind)  -nan(ind)  -nan(ind)  -nan(ind)  -nan(ind)
  CDT-620                 1.00   -nan(ind)  -nan(ind)  -nan(ind)  -nan(ind)  -nan(ind)  -nan(ind)  -nan(ind)  -nan(ind)  -nan(ind)
  CDT-625                 1.00   -nan(ind)  -nan(ind)  -nan(ind)  -nan(ind)  -nan(ind)  -nan(ind)  -nan(ind)  -nan(ind)  -nan(ind)
  CDT-628                 1.00   -nan(ind)  -nan(ind)  -nan(ind)  -nan(ind)  -nan(ind)  -nan(ind)  -nan(ind)  -nan(ind)  -nan(ind)
  CDT-630                 1.12   -nan(ind)  -nan(ind)  -nan(ind)  -nan(ind)  -nan(ind)  -nan(ind)  -nan(ind)  -nan(ind)  -nan(ind)
  CDT-634                 1.00   -nan(ind)  -nan(ind)  -nan(ind)  -nan(ind)  -nan(ind)  -nan(ind)  -nan(ind)  -nan(ind)  -nan(ind)
  CDT-635                 1.00   -nan(ind)  -nan(ind)  -nan(ind)  -nan(ind)  -nan(ind)  -nan(ind)  -nan(ind)  -nan(ind)  -nan(ind)
  CDT-636                 1.00   -nan(ind)  -nan(ind)  -nan(ind)  -nan(ind)  -nan(ind)  -nan(ind)  -nan(ind)  -nan(ind)  -nan(ind)
  CDT-642                 1.00   -nan(ind)  -nan(ind)  -nan(ind)  -nan(ind)  -nan(ind)  -nan(ind)  -nan(ind)  -nan(ind)  -nan(ind)
  CDT-646                 1.00   -nan(ind)  -nan(ind)  -nan(ind)  -nan(ind)  -nan(ind)  -nan(ind)  -nan(ind)  -nan(ind)  -nan(ind)
  CDT-648                 1.00   -nan(ind)  -nan(ind)  -nan(ind)  -nan(ind)  -nan(ind)  -nan(ind)  -nan(ind)  -nan(ind)  -nan(ind)
  CDT-650                 1.00   -nan(ind)  -nan(ind)  -nan(ind)  -nan(ind)  -nan(ind)  -nan(ind)  -nan(ind)  -nan(ind)  -nan(ind)
  CDT-652                 1.00   -nan(ind)  -nan(ind)  -nan(ind)  -nan(ind)  -nan(ind)  -nan(ind)  -nan(ind)  -nan(ind)  -nan(ind)
  CDT-654                 1.00   -nan(ind)  -nan(ind)  -nan(ind)  -nan(ind)  -nan(ind)  -nan(ind)  -nan(ind)  -nan(ind)  -nan(ind)
  CDT-658                 1.00   -nan(ind)  -nan(ind)  -nan(ind)  -nan(ind)  -nan(ind)  -nan(ind)  -nan(ind)  -nan(ind)  -nan(ind)
  CDT-662                 1.61   -nan(ind)  -nan(ind)  -nan(ind)  -nan(ind)  -nan(ind)  -nan(ind)  -nan(ind)  -nan(ind)  -nan(ind)
  CDT-664                 1.00   -nan(ind)  -nan(ind)  -nan(ind)  -nan(ind)  -nan(ind)  -nan(ind)  -nan(ind)  -nan(ind)  -nan(ind)
  CDT-666                 1.00   -nan(ind)  -nan(ind)  -nan(ind)  -nan(ind)  -nan(ind)  -nan(ind)  -nan(ind)  -nan(ind)  -nan(ind)
  
  
  *************************
  Conduit Surcharge Summary
  *************************
  
  No conduits were surcharged.
  

  Analysis begun on:  Sat Nov 30 08:11:08 2019
  Analysis ended on:  Sat Nov 30 08:11:08 2019
  Total elapsed time: < 1 sec