
  EPA STORM WATER MANAGEMENT MODEL - VERSION 5.1 (Build 5.1.013)
  --------------------------------------------------------------

  WARNING 09: time series interval greater than recording interval for Rain Gage HELENA
  WARNING 01: wet weather time step reduced to recording interval for Rain Gage HELENA
  WARNING 03: negative offset ignored for Link WS_CDT113
  WARNING 04: minimum elevation drop used for Conduit WS_CDT135
  WARNING 04: minimum elevation drop used for Conduit WS_CDT179
  WARNING 03: negative offset ignored for Link WS_CDT183
  WARNING 03: negative offset ignored for Link WS_CDT192
  WARNING 03: negative offset ignored for Link WS_CDT193
  WARNING 03: negative offset ignored for Link WS_CDT208
  WARNING 03: negative offset ignored for Link WS_CDT208
  WARNING 03: negative offset ignored for Link WS_CDT209
  WARNING 04: minimum elevation drop used for Conduit WS_CDT327
  WARNING 04: minimum elevation drop used for Conduit WS_CDT329
  WARNING 03: negative offset ignored for Link WS_CDT337
  WARNING 04: minimum elevation drop used for Conduit WS_CDT338
  WARNING 03: negative offset ignored for Link WS_CDT394
  WARNING 02: maximum depth increased for Node WS_JCT125
  WARNING 02: maximum depth increased for Node WS_JCT229
  WARNING 02: maximum depth increased for Node WS_JCT230
  WARNING 02: maximum depth increased for Node WS_JCT304
  WARNING 02: maximum depth increased for Node WS_JCT373
  WARNING 02: maximum depth increased for Node WS_JCT413
  WARNING 02: maximum depth increased for Node WS_JCT415
  
  *********************************************************
  NOTE: The summary statistics displayed in this report are
  based on results found at every computational time step,  
  not just on results from each reporting time step.
  *********************************************************
  
  ****************
  Analysis Options
  ****************
  Flow Units ............... CFS
  Process Models:
    Rainfall/Runoff ........ YES
    RDII ................... NO
    Snowmelt ............... NO
    Groundwater ............ NO
    Flow Routing ........... YES
    Ponding Allowed ........ YES
    Water Quality .......... NO
  Infiltration Method ...... HORTON
  Flow Routing Method ...... DYNWAVE
  Surcharge Method ......... EXTRAN
  Starting Date ............ 01/01/2002 00:00:00
  Ending Date .............. 01/03/2002 00:00:00
  Antecedent Dry Days ...... 5.0
  Report Time Step ......... 00:05:00
  Wet Time Step ............ 00:04:59
  Dry Time Step ............ 01:00:00
  Routing Time Step ........ 10.00 sec
  Variable Time Step ....... YES
  Maximum Trials ........... 8
  Number of Threads ........ 1
  Head Tolerance ........... 0.000100 ft
  
  
  **************************        Volume         Depth
  Runoff Quantity Continuity     acre-feet        inches
  **************************     ---------       -------
  Total Precipitation ......         0.000         0.000
  Evaporation Loss .........         0.000         0.000
  Infiltration Loss ........         0.000         0.000
  Surface Runoff ...........         0.000         0.000
  Final Storage ............         0.000         0.000
  Continuity Error (%) .....         0.000
  
  
  **************************        Volume        Volume
  Flow Routing Continuity        acre-feet      10^6 gal
  **************************     ---------     ---------
  Dry Weather Inflow .......         0.000         0.000
  Wet Weather Inflow .......         0.000         0.000
  Groundwater Inflow .......         0.000         0.000
  RDII Inflow ..............         0.000         0.000
  External Inflow ..........         0.000         0.000
  External Outflow .........         0.000         0.000
  Flooding Loss ............         0.000         0.000
  Evaporation Loss .........         0.000         0.000
  Exfiltration Loss ........         0.000         0.000
  Initial Stored Volume ....         0.003         0.001
  Final Stored Volume ......         0.003         0.001
  Continuity Error (%) .....         0.000
  
  
  ***************************
  Time-Step Critical Elements
  ***************************
  None
  
  
  ********************************
  Highest Flow Instability Indexes
  ********************************
  All links are stable.
  
  
  ***************************
  Subcatchment Runoff Summary
  ***************************
  
  ------------------------------------------------------------------------------------------------------------------------------
                            Total      Total      Total      Total     Imperv       Perv      Total       Total     Peak  Runoff
                           Precip      Runon       Evap      Infil     Runoff     Runoff     Runoff      Runoff   Runoff   Coeff
  Subcatchment                 in         in         in         in         in         in         in    10^6 gal      CFS
  ------------------------------------------------------------------------------------------------------------------------------
  WS_SC100                   0.00       0.00       0.00       0.00       0.00       0.00       0.00        0.00     0.00   0.000
  WS_SC101                   0.00       0.00       0.00       0.00       0.00       0.00       0.00        0.00     0.00   0.000
  WS_SC102                   0.00       0.00       0.00       0.00       0.00       0.00       0.00        0.00     0.00   0.000
  WS_SC103                   0.00       0.00       0.00       0.00       0.00       0.00       0.00        0.00     0.00   0.000
  WS_SC104                   0.00       0.00       0.00       0.00       0.00       0.00       0.00        0.00     0.00   0.000
  WS_SC105                   0.00       0.00       0.00       0.00       0.00       0.00       0.00        0.00     0.00   0.000
  WS_SC106                   0.00       0.00       0.00       0.00       0.00       0.00       0.00        0.00     0.00   0.000
  WS_SC107                   0.00       0.00       0.00       0.00       0.00       0.00       0.00        0.00     0.00   0.000
  WS_SC108                   0.00       0.00       0.00       0.00       0.00       0.00       0.00        0.00     0.00   0.000
  WS_SC109                   0.00       0.00       0.00       0.00       0.00       0.00       0.00        0.00     0.00   0.000
  WS_SC110                   0.00       0.00       0.00       0.00       0.00       0.00       0.00        0.00     0.00   0.000
  WS_SC111                   0.00       0.00       0.00       0.00       0.00       0.00       0.00        0.00     0.00   0.000
  WS_SC112                   0.00       0.00       0.00       0.00       0.00       0.00       0.00        0.00     0.00   0.000
  WS_SC116                   0.00       0.00       0.00       0.00       0.00       0.00       0.00        0.00     0.00   0.000
  WS_SC119                   0.00       0.00       0.00       0.00       0.00       0.00       0.00        0.00     0.00   0.000
  WS_SC122                   0.00       0.00       0.00       0.00       0.00       0.00       0.00        0.00     0.00   0.000
  WS_SC123                   0.00       0.00       0.00       0.00       0.00       0.00       0.00        0.00     0.00   0.000
  WS_SC124                   0.00       0.00       0.00       0.00       0.00       0.00       0.00        0.00     0.00   0.000
  WS_SC125                   0.00       0.00       0.00       0.00       0.00       0.00       0.00        0.00     0.00   0.000
  WS_SC126                   0.00       0.00       0.00       0.00       0.00       0.00       0.00        0.00     0.00   0.000
  WS_SC127                   0.00       0.00       0.00       0.00       0.00       0.00       0.00        0.00     0.00   0.000
  WS_SC128                   0.00       0.00       0.00       0.00       0.00       0.00       0.00        0.00     0.00   0.000
  WS_SC129                   0.00       0.00       0.00       0.00       0.00       0.00       0.00        0.00     0.00   0.000
  WS_SC130                   0.00       0.00       0.00       0.00       0.00       0.00       0.00        0.00     0.00   0.000
  WS_SC131                   0.00       0.00       0.00       0.00       0.00       0.00       0.00        0.00     0.00   0.000
  WS_SC132                   0.00       0.00       0.00       0.00       0.00       0.00       0.00        0.00     0.00   0.000
  WS_SC133                   0.00       0.00       0.00       0.00       0.00       0.00       0.00        0.00     0.00   0.000
  WS_SC134                   0.00       0.00       0.00       0.00       0.00       0.00       0.00        0.00     0.00   0.000
  WS_SC135                   0.00       0.00       0.00       0.00       0.00       0.00       0.00        0.00     0.00   0.000
  WS_SC136                   0.00       0.00       0.00       0.00       0.00       0.00       0.00        0.00     0.00   0.000
  WS_SC137                   0.00       0.00       0.00       0.00       0.00       0.00       0.00        0.00     0.00   0.000
  WS_SC138                   0.00       0.00       0.00       0.00       0.00       0.00       0.00        0.00     0.00   0.000
  WS_SC139                   0.00       0.00       0.00       0.00       0.00       0.00       0.00        0.00     0.00   0.000
  WS_SC140                   0.00       0.00       0.00       0.00       0.00       0.00       0.00        0.00     0.00   0.000
  WS_SC141                   0.00       0.00       0.00       0.00       0.00       0.00       0.00        0.00     0.00   0.000
  WS_SC142                   0.00       0.00       0.00       0.00       0.00       0.00       0.00        0.00     0.00   0.000
  WS_SC143                   0.00       0.00       0.00       0.00       0.00       0.00       0.00        0.00     0.00   0.000
  WS_SC144                   0.00       0.00       0.00       0.00       0.00       0.00       0.00        0.00     0.00   0.000
  WS_SC145                   0.00       0.00       0.00       0.00       0.00       0.00       0.00        0.00     0.00   0.000
  WS_SC146                   0.00       0.00       0.00       0.00       0.00       0.00       0.00        0.00     0.00   0.000
  WS_SC147                   0.00       0.00       0.00       0.00       0.00       0.00       0.00        0.00     0.00   0.000
  WS_SC148                   0.00       0.00       0.00       0.00       0.00       0.00       0.00        0.00     0.00   0.000
  WS_SC149                   0.00       0.00       0.00       0.00       0.00       0.00       0.00        0.00     0.00   0.000
  WS_SC150                   0.00       0.00       0.00       0.00       0.00       0.00       0.00        0.00     0.00   0.000
  WS_SC151                   0.00       0.00       0.00       0.00       0.00       0.00       0.00        0.00     0.00   0.000
  WS_SC152                   0.00       0.00       0.00       0.00       0.00       0.00       0.00        0.00     0.00   0.000
  WS_SC153                   0.00       0.00       0.00       0.00       0.00       0.00       0.00        0.00     0.00   0.000
  WS_SC154                   0.00       0.00       0.00       0.00       0.00       0.00       0.00        0.00     0.00   0.000
  WS_SC155                   0.00       0.00       0.00       0.00       0.00       0.00       0.00        0.00     0.00   0.000
  WS_SC156                   0.00       0.00       0.00       0.00       0.00       0.00       0.00        0.00     0.00   0.000
  WS_SC157                   0.00       0.00       0.00       0.00       0.00       0.00       0.00        0.00     0.00   0.000
  WS_SC158                   0.00       0.00       0.00       0.00       0.00       0.00       0.00        0.00     0.00   0.000
  WS_SC159                   0.00       0.00       0.00       0.00       0.00       0.00       0.00        0.00     0.00   0.000
  WS_SC160                   0.00       0.00       0.00       0.00       0.00       0.00       0.00        0.00     0.00   0.000
  WS_SC161                   0.00       0.00       0.00       0.00       0.00       0.00       0.00        0.00     0.00   0.000
  WS_SC162                   0.00       0.00       0.00       0.00       0.00       0.00       0.00        0.00     0.00   0.000
  WS_SC163                   0.00       0.00       0.00       0.00       0.00       0.00       0.00        0.00     0.00   0.000
  WS_SC164                   0.00       0.00       0.00       0.00       0.00       0.00       0.00        0.00     0.00   0.000
  WS_SC165                   0.00       0.00       0.00       0.00       0.00       0.00       0.00        0.00     0.00   0.000
  WS_SC166                   0.00       0.00       0.00       0.00       0.00       0.00       0.00        0.00     0.00   0.000
  WS_SC167                   0.00       0.00       0.00       0.00       0.00       0.00       0.00        0.00     0.00   0.000
  WS_SC168                   0.00       0.00       0.00       0.00       0.00       0.00       0.00        0.00     0.00   0.000
  WS_SC169                   0.00       0.00       0.00       0.00       0.00       0.00       0.00        0.00     0.00   0.000
  WS_SC170                   0.00       0.00       0.00       0.00       0.00       0.00       0.00        0.00     0.00   0.000
  
  
  ******************
  Node Depth Summary
  ******************
  
  ---------------------------------------------------------------------------------
                                 Average  Maximum  Maximum  Time of Max    Reported
                                   Depth    Depth      HGL   Occurrence   Max Depth
  Node                 Type         Feet     Feet     Feet  days hr:min        Feet
  ---------------------------------------------------------------------------------
  WS_JCT101            JUNCTION  -nan(ind)     0.00  3953.00     0  00:00        0.00
  WS_JCT108            JUNCTION  -nan(ind)     0.00  3992.00     0  00:00        0.00
  WS_JCT112            JUNCTION  -nan(ind)     0.00  3834.86     0  00:00        0.00
  WS_JCT115            JUNCTION  -nan(ind)     0.00  3943.50     0  00:00        0.00
  WS_JCT117            JUNCTION  -nan(ind)     0.00  3942.43     0  00:00        0.00
  WS_JCT118            JUNCTION  -nan(ind)     0.00  3939.96     0  00:00        0.00
  WS_JCT119            JUNCTION  -nan(ind)     0.00  3966.00     0  00:00        0.00
  WS_JCT120            JUNCTION  -nan(ind)     0.00  3943.50     0  00:00        0.00
  WS_JCT125            JUNCTION  -nan(ind)     0.00  3998.00     0  00:00        0.00
  WS_JCT126            JUNCTION  -nan(ind)     0.00  3949.00     0  00:00        0.00
  WS_JCT129            JUNCTION  -nan(ind)     0.00  4123.62     0  00:00        0.00
  WS_JCT130            JUNCTION  -nan(ind)     0.00  4121.51     0  00:00        0.00
  WS_JCT132            JUNCTION  -nan(ind)     0.00  3941.00     0  00:00        0.00
  WS_JCT133            JUNCTION  -nan(ind)     0.00  4131.17     0  00:00        0.00
  WS_JCT134            JUNCTION  -nan(ind)     0.00  4130.00     0  00:00        0.00
  WS_JCT135            JUNCTION  -nan(ind)     0.00  4041.00     0  00:00        0.00
  WS_JCT136            JUNCTION  -nan(ind)     0.00  3970.00     0  00:00        0.00
  WS_JCT137            JUNCTION  -nan(ind)     0.00  3950.00     0  00:00        0.00
  WS_JCT138            JUNCTION  -nan(ind)     0.00  3898.17     0  00:00        0.00
  WS_JCT142            JUNCTION  -nan(ind)     0.00  3856.00     0  00:00        0.00
  WS_JCT143            JUNCTION  -nan(ind)     0.00  3938.66     0  00:00        0.00
  WS_JCT145            JUNCTION  -nan(ind)     0.00  4009.35     0  00:00        0.00
  WS_JCT146            JUNCTION  -nan(ind)     0.00  4022.82     0  00:00        0.00
  WS_JCT147            JUNCTION  -nan(ind)     0.00  4020.82     0  00:00        0.00
  WS_JCT148            JUNCTION  -nan(ind)     0.00  4018.92     0  00:00        0.00
  WS_JCT149            JUNCTION  -nan(ind)     0.00  4016.50     0  00:00        0.00
  WS_JCT150            JUNCTION  -nan(ind)     0.00  4010.19     0  00:00        0.00
  WS_JCT151            JUNCTION  -nan(ind)     0.00  4005.50     0  00:00        0.00
  WS_JCT152            JUNCTION  -nan(ind)     0.00  4003.00     0  00:00        0.00
  WS_JCT153            JUNCTION  -nan(ind)     0.00  4000.00     0  00:00        0.00
  WS_JCT154            JUNCTION  -nan(ind)     0.00  3996.00     0  00:00        0.00
  WS_JCT159            JUNCTION  -nan(ind)     0.00  3952.00     0  00:00        0.00
  WS_JCT160            JUNCTION  -nan(ind)     0.00  3952.50     0  00:00        0.00
  WS_JCT161            JUNCTION  -nan(ind)     0.00  4051.00     0  00:00        0.00
  WS_JCT162            JUNCTION  -nan(ind)     0.00  4091.76     0  00:00        0.00
  WS_JCT163            JUNCTION  -nan(ind)     0.00  4079.00     0  00:00        0.00
  WS_JCT164            JUNCTION  -nan(ind)     0.00  3920.00     0  00:00        0.00
  WS_JCT165            JUNCTION  -nan(ind)     0.00  3915.50     0  00:00        0.00
  WS_JCT166            JUNCTION  -nan(ind)     0.00  3919.00     0  00:00        0.00
  WS_JCT167            JUNCTION  -nan(ind)     0.00  3915.00     0  00:00        0.00
  WS_JCT168            JUNCTION  -nan(ind)     0.00  3913.00     0  00:00        0.00
  WS_JCT169            JUNCTION  -nan(ind)     0.00  3903.00     0  00:00        0.00
  WS_JCT170            JUNCTION  -nan(ind)     0.00  3900.00     0  00:00        0.00
  WS_JCT171            JUNCTION  -nan(ind)     0.00  3899.00     0  00:00        0.00
  WS_JCT172            JUNCTION  -nan(ind)     0.00  3897.00     0  00:00        0.00
  WS_JCT173            JUNCTION  -nan(ind)     0.00  3920.50     0  00:00        0.00
  WS_JCT174            JUNCTION  -nan(ind)     0.00  3922.00     0  00:00        0.00
  WS_JCT176            JUNCTION  -nan(ind)     0.00  3922.00     0  00:00        0.00
  WS_JCT177            JUNCTION  -nan(ind)     0.00  3926.00     0  00:00        0.00
  WS_JCT179            JUNCTION  -nan(ind)     0.00  3927.50     0  00:00        0.00
  WS_JCT183            JUNCTION  -nan(ind)     0.00  3900.72     0  00:00        0.00
  WS_JCT185            JUNCTION  -nan(ind)     0.00  3900.72     0  00:00        0.00
  WS_JCT186            JUNCTION  -nan(ind)     0.00  3910.00     0  00:00        0.00
  WS_JCT187            JUNCTION  -nan(ind)     0.00  3913.00     0  00:00        0.00
  WS_JCT188            JUNCTION  -nan(ind)     0.00  3915.50     0  00:00        0.00
  WS_JCT192            JUNCTION  -nan(ind)     0.00  3929.00     0  00:00        0.00
  WS_JCT198            JUNCTION  -nan(ind)     0.00  3938.31     0  00:00        0.00
  WS_JCT199            JUNCTION  -nan(ind)     0.00  3943.74     0  00:00        0.00
  WS_JCT200            JUNCTION  -nan(ind)     0.00  3944.19     0  00:00        0.00
  WS_JCT201            JUNCTION  -nan(ind)     0.00  3949.35     0  00:00        0.00
  WS_JCT202            JUNCTION  -nan(ind)     0.00  3947.44     0  00:00        0.00
  WS_JCT203            JUNCTION  -nan(ind)     0.00  3954.84     0  00:00        0.00
  WS_JCT204            JUNCTION  -nan(ind)     0.00  3954.04     0  00:00        0.00
  WS_JCT205            JUNCTION  -nan(ind)     0.00  3958.86     0  00:00        0.00
  WS_JCT206            JUNCTION  -nan(ind)     0.00  3961.38     0  00:00        0.00
  WS_JCT207            JUNCTION  -nan(ind)     0.00  3966.31     0  00:00        0.00
  WS_JCT208            JUNCTION  -nan(ind)     0.00  3967.06     0  00:00        0.00
  WS_JCT209            JUNCTION  -nan(ind)     0.00  3970.15     0  00:00        0.00
  WS_JCT210            JUNCTION  -nan(ind)     0.00  3972.73     0  00:00        0.00
  WS_JCT211            JUNCTION  -nan(ind)     0.00  3978.75     0  00:00        0.00
  WS_JCT212            JUNCTION  -nan(ind)     0.00  3977.63     0  00:00        0.00
  WS_JCT213            JUNCTION  -nan(ind)     0.00  3983.97     0  00:00        0.00
  WS_JCT216            JUNCTION  -nan(ind)     0.00  3986.51     0  00:00        0.00
  WS_JCT217            JUNCTION  -nan(ind)     0.00  3992.26     0  00:00        0.00
  WS_JCT218            JUNCTION  -nan(ind)     0.00  4018.92     0  00:00        0.00
  WS_JCT219            JUNCTION  -nan(ind)     0.00  4012.00     0  00:00        0.00
  WS_JCT223            JUNCTION  -nan(ind)     0.00  3815.00     0  00:00        0.00
  WS_JCT224            JUNCTION  -nan(ind)     0.00  3815.00     0  00:00        0.00
  WS_JCT225            JUNCTION  -nan(ind)     0.00  3814.36     0  00:00        0.00
  WS_JCT226            JUNCTION  -nan(ind)     0.00  3813.80     0  00:00        0.00
  WS_JCT229            JUNCTION  -nan(ind)     0.00  3863.62     0  00:00        0.00
  WS_JCT230            JUNCTION  -nan(ind)     0.00  3863.67     0  00:00        0.00
  WS_JCT240            JUNCTION  -nan(ind)     0.00  3866.98     0  00:00        0.00
  WS_JCT245            JUNCTION  -nan(ind)     0.00  3893.65     0  00:00        0.00
  WS_JCT247            JUNCTION  -nan(ind)     0.00  3890.00     0  00:00        0.00
  WS_JCT248            JUNCTION  -nan(ind)     0.00  3884.00     0  00:00        0.00
  WS_JCT251            JUNCTION  -nan(ind)     0.00  3939.00     0  00:00        0.00
  WS_JCT254            JUNCTION  -nan(ind)     0.00  3934.78     0  00:00        0.00
  WS_JCT256            JUNCTION  -nan(ind)     0.00  3935.00     0  00:00        0.00
  WS_JCT257            JUNCTION  -nan(ind)     0.00  3931.00     0  00:00        0.00
  WS_JCT258            JUNCTION  -nan(ind)     0.00  3933.00     0  00:00        0.00
  WS_JCT260            JUNCTION  -nan(ind)     0.00  3954.00     0  00:00        0.00
  WS_JCT261            JUNCTION  -nan(ind)     0.00  3925.50     0  00:00        0.00
  WS_JCT262            JUNCTION  -nan(ind)     0.00  3809.00     0  00:00        0.00
  WS_JCT263            JUNCTION  -nan(ind)     0.00  3808.00     0  00:00        0.00
  WS_JCT264            JUNCTION  -nan(ind)     0.00  3803.80     0  00:00        0.00
  WS_JCT265            JUNCTION  -nan(ind)     0.00  3862.90     0  00:00        0.00
  WS_JCT268            JUNCTION  -nan(ind)     0.00  3865.97     0  00:00        0.00
  WS_JCT269            JUNCTION  -nan(ind)     0.00  3870.38     0  00:00        0.00
  WS_JCT270            JUNCTION  -nan(ind)     0.00  3870.79     0  00:00        0.00
  WS_JCT271            JUNCTION  -nan(ind)     0.00  3930.08     0  00:00        0.00
  WS_JCT272            JUNCTION  -nan(ind)     0.00  3930.23     0  00:00        0.00
  WS_JCT273            JUNCTION  -nan(ind)     0.00  3835.50     0  00:00        0.00
  WS_JCT276            JUNCTION  -nan(ind)     0.00  4024.00     0  00:00        0.00
  WS_JCT277            JUNCTION  -nan(ind)     0.00  4014.50     0  00:00        0.00
  WS_JCT278            JUNCTION  -nan(ind)     0.00  4015.17     0  00:00        0.00
  WS_JCT279            JUNCTION  -nan(ind)     0.00  4010.07     0  00:00        0.00
  WS_JCT280            JUNCTION  -nan(ind)     0.00  4008.74     0  00:00        0.00
  WS_JCT281            JUNCTION  -nan(ind)     0.00  4007.94     0  00:00        0.00
  WS_JCT282            JUNCTION  -nan(ind)     0.00  3986.39     0  00:00        0.00
  WS_JCT283            JUNCTION  -nan(ind)     0.00  3986.84     0  00:00        0.00
  WS_JCT284            JUNCTION  -nan(ind)     0.00  3991.50     0  00:00        0.00
  WS_JCT285            JUNCTION  -nan(ind)     0.00  3990.65     0  00:00        0.00
  WS_JCT286            JUNCTION  -nan(ind)     0.00  4005.88     0  00:00        0.00
  WS_JCT287            JUNCTION  -nan(ind)     0.00  4003.55     0  00:00        0.00
  WS_JCT288            JUNCTION  -nan(ind)     0.00  3952.89     0  00:00        0.00
  WS_JCT289            JUNCTION  -nan(ind)     0.00  4088.00     0  00:00        0.00
  WS_JCT290            JUNCTION  -nan(ind)     0.00  3917.30     0  00:00        0.00
  WS_JCT291            JUNCTION  -nan(ind)     0.00  3923.69     0  00:00        0.00
  WS_JCT292            JUNCTION  -nan(ind)     0.00  3934.76     0  00:00        0.00
  WS_JCT293            JUNCTION  -nan(ind)     0.00  3984.50     0  00:00        0.00
  WS_JCT294            JUNCTION  -nan(ind)     0.00  3985.48     0  00:00        0.00
  WS_JCT295            JUNCTION  -nan(ind)     0.00  3985.93     0  00:00        0.00
  WS_JCT298            JUNCTION  -nan(ind)     0.00  3875.50     0  00:00        0.00
  WS_JCT299            JUNCTION  -nan(ind)     0.00  3996.00     0  00:00        0.00
  WS_JCT304            JUNCTION  -nan(ind)     0.00  4026.82     0  00:00        0.00
  WS_JCT305            JUNCTION  -nan(ind)     0.00  4023.32     0  00:00        0.00
  WS_JCT306            JUNCTION  -nan(ind)     0.00  4020.00     0  00:00        0.00
  WS_JCT307            JUNCTION  -nan(ind)     0.00  4018.00     0  00:00        0.00
  WS_JCT308            JUNCTION  -nan(ind)     0.00  4020.00     0  00:00        0.00
  WS_JCT309            JUNCTION  -nan(ind)     0.00  4022.00     0  00:00        0.00
  WS_JCT310            JUNCTION  -nan(ind)     0.00  3994.19     0  00:00        0.00
  WS_JCT311            JUNCTION  -nan(ind)     0.00  3994.02     0  00:00        0.00
  WS_JCT312            JUNCTION  -nan(ind)     0.00  4015.35     0  00:00        0.00
  WS_JCT313            JUNCTION  -nan(ind)     0.00  4008.70     0  00:00        0.00
  WS_JCT314            JUNCTION  -nan(ind)     0.00  4010.00     0  00:00        0.00
  WS_JCT315            JUNCTION  -nan(ind)     0.00  4008.00     0  00:00        0.00
  WS_JCT316            JUNCTION  -nan(ind)     0.00  4004.00     0  00:00        0.00
  WS_JCT317            JUNCTION  -nan(ind)     0.00  4006.00     0  00:00        0.00
  WS_JCT318            JUNCTION  -nan(ind)     0.00  3996.00     0  00:00        0.00
  WS_JCT327            JUNCTION  -nan(ind)     0.00  3957.52     0  00:00        0.00
  WS_JCT328            JUNCTION  -nan(ind)     0.00  3967.84     0  00:00        0.00
  WS_JCT329            JUNCTION  -nan(ind)     0.00  3988.56     0  00:00        0.00
  WS_JCT330            JUNCTION  -nan(ind)     0.00  4090.00     0  00:00        0.00
  WS_JCT331            JUNCTION  -nan(ind)     0.00  3929.00     0  00:00        0.00
  WS_JCT332            JUNCTION  -nan(ind)     0.00  3998.00     0  00:00        0.00
  WS_JCT333            JUNCTION  -nan(ind)     0.00  3992.53     0  00:00        0.00
  WS_JCT334            JUNCTION  -nan(ind)     0.00  3992.88     0  00:00        0.00
  WS_JCT335            JUNCTION  -nan(ind)     0.00  3893.44     0  00:00        0.00
  WS_JCT336            JUNCTION  -nan(ind)     0.00  3894.36     0  00:00        0.00
  WS_JCT339            JUNCTION  -nan(ind)     0.00     0.00     0  00:00        0.00
  WS_JCT340            JUNCTION  -nan(ind)     0.00     0.00     0  00:00        0.00
  WS_JCT345            JUNCTION  -nan(ind)     0.00  3935.50     0  00:00        0.00
  WS_JCT350            JUNCTION  -nan(ind)     0.00  3947.00     0  00:00        0.00
  WS_JCT354            JUNCTION  -nan(ind)     0.00  3815.00     0  00:00        0.00
  WS_JCT355            JUNCTION  -nan(ind)     0.00  3825.50     0  00:00        0.00
  WS_JCT356            JUNCTION  -nan(ind)     0.00  3825.50     0  00:00        0.00
  WS_JCT358            JUNCTION  -nan(ind)     0.00  4011.08     0  00:00        0.00
  WS_JCT359            JUNCTION  -nan(ind)     0.00  3998.88     0  00:00        0.00
  WS_JCT360            JUNCTION  -nan(ind)     0.00  4013.35     0  00:00        0.00
  WS_JCT361            JUNCTION  -nan(ind)     0.00  3980.50     0  00:00        0.00
  WS_JCT362            JUNCTION  -nan(ind)     0.00  4028.64     0  00:00        0.00
  WS_JCT363            JUNCTION  -nan(ind)     0.00  4027.58     0  00:00        0.00
  WS_JCT364            JUNCTION  -nan(ind)     0.00  4024.76     0  00:00        0.00
  WS_JCT365            JUNCTION  -nan(ind)     0.00  4024.08     0  00:00        0.00
  WS_JCT366            JUNCTION  -nan(ind)     0.00  4022.52     0  00:00        0.00
  WS_JCT367            JUNCTION  -nan(ind)     0.00  4025.51     0  00:00        0.00
  WS_JCT368            JUNCTION  -nan(ind)     0.00  4024.06     0  00:00        0.00
  WS_JCT369            JUNCTION  -nan(ind)     0.00  4020.26     0  00:00        0.00
  WS_JCT370            JUNCTION  -nan(ind)     0.00  4013.58     0  00:00        0.00
  WS_JCT371            JUNCTION  -nan(ind)     0.00  4011.91     0  00:00        0.00
  WS_JCT372            JUNCTION  -nan(ind)     0.00  4009.78     0  00:00        0.00
  WS_JCT373            JUNCTION  -nan(ind)     0.00  4010.96     0  00:00        0.00
  WS_JCT374            JUNCTION  -nan(ind)     0.00  4002.62     0  00:00        0.00
  WS_JCT381            JUNCTION  -nan(ind)     0.00  3957.26     0  00:00        0.00
  WS_JCT382            JUNCTION  -nan(ind)     0.00  4086.30     0  00:00        0.00
  WS_JCT383            JUNCTION  -nan(ind)     0.00  3996.24     0  00:00        0.00
  WS_JCT384            JUNCTION  -nan(ind)     0.00  3975.15     0  00:00        0.00
  WS_JCT385            JUNCTION  -nan(ind)     0.00  3965.15     0  00:00        0.00
  WS_JCT386            JUNCTION  -nan(ind)     0.00  3957.90     0  00:00        0.00
  WS_JCT388            JUNCTION  -nan(ind)     0.00  4024.31     0  00:00        0.00
  WS_JCT389            JUNCTION  -nan(ind)     0.00  4021.92     0  00:00        0.00
  WS_JCT390            JUNCTION  -nan(ind)     0.00  4020.97     0  00:00        0.00
  WS_JCT391            JUNCTION  -nan(ind)     0.00  4018.30     0  00:00        0.00
  WS_JCT392            JUNCTION  -nan(ind)     0.00  4019.37     0  00:00        0.00
  WS_JCT393            JUNCTION  -nan(ind)     0.00  4020.00     0  00:00        0.00
  WS_JCT394            JUNCTION  -nan(ind)     0.00  4006.94     0  00:00        0.00
  WS_JCT395            JUNCTION  -nan(ind)     0.00  4005.02     0  00:00        0.00
  WS_JCT396            JUNCTION  -nan(ind)     0.00  4002.05     0  00:00        0.00
  WS_JCT397            JUNCTION  -nan(ind)     0.00  4002.75     0  00:00        0.00
  WS_JCT398            JUNCTION  -nan(ind)     0.00  3998.60     0  00:00        0.00
  WS_JCT402            JUNCTION  -nan(ind)     0.00  4012.07     0  00:00        0.00
  WS_JCT403            JUNCTION  -nan(ind)     0.00  3928.00     0  00:00        0.00
  WS_JCT404            JUNCTION  -nan(ind)     0.00  3864.00     0  00:00        0.00
  WS_JCT405            JUNCTION  -nan(ind)     0.00  3885.00     0  00:00        0.00
  WS_JCT406            JUNCTION  -nan(ind)     0.00  3866.50     0  00:00        0.00
  WS_JCT407            JUNCTION  -nan(ind)     0.00  3908.00     0  00:00        0.00
  WS_JCT411            JUNCTION  -nan(ind)     0.00  3872.15     0  00:00        0.00
  WS_JCT412            JUNCTION  -nan(ind)     0.00  3872.15     0  00:00        0.00
  WS_JCT413            JUNCTION  -nan(ind)     0.00  3867.17     0  00:00        0.00
  WS_JCT414            JUNCTION  -nan(ind)     0.00  3867.17     0  00:00        0.00
  WS_JCT415            JUNCTION  -nan(ind)     0.00  3873.10     0  00:00        0.00
  WS_JCT416            JUNCTION  -nan(ind)     0.00  3873.10     0  00:00        0.00
  WS_OFALL100          OUTFALL   -nan(ind)     0.00  3938.00     0  00:00        0.00
  WS_OFALL101          OUTFALL   -nan(ind)     0.00  3933.50     0  00:00        0.00
  WS_OFALL102          OUTFALL   -nan(ind)     0.00  3976.00     0  00:00        0.00
  WS_OFALL104          OUTFALL   -nan(ind)     0.00  3799.00     0  00:00        0.00
  WS_NAT_STORAGE_01A   STORAGE   -nan(ind)     0.00  3856.00     0  00:00        0.00
  WS_PND30             STORAGE   -nan(ind)     0.00  3866.50     0  00:00        0.00
  WS_PND31             STORAGE   -nan(ind)     0.00  3873.20     0  00:00        0.00
  WS_PND32             STORAGE   -nan(ind)     0.00  3866.50     0  00:00        0.00
  WS_PND33             STORAGE   -nan(ind)     0.00  3872.10     0  00:00        0.00
  WS_PND34             STORAGE   -nan(ind)     0.00  3916.00     0  00:00        0.00
  WS_PND35             STORAGE   -nan(ind)     0.00  3935.50     0  00:00        0.00
  WS_PND36             STORAGE   -nan(ind)     0.00  3945.00     0  00:00        0.00
  
  
  *******************
  Node Inflow Summary
  *******************
  
  -------------------------------------------------------------------------------------------------
                                  Maximum  Maximum                  Lateral       Total        Flow
                                  Lateral    Total  Time of Max      Inflow      Inflow     Balance
                                   Inflow   Inflow   Occurrence      Volume      Volume       Error
  Node                 Type           CFS      CFS  days hr:min    10^6 gal    10^6 gal     Percent
  -------------------------------------------------------------------------------------------------
  WS_JCT101            JUNCTION      0.00     0.00     0  00:00           0           0       0.000 gal
  WS_JCT108            JUNCTION      0.00     0.00     0  00:00           0           0       0.000 gal
  WS_JCT112            JUNCTION      0.00     0.00     0  00:00           0           0       0.000 gal
  WS_JCT115            JUNCTION      0.00     0.00     0  00:00           0           0       0.000 gal
  WS_JCT117            JUNCTION      0.00     0.00     0  00:00           0           0       0.000 gal
  WS_JCT118            JUNCTION      0.00     0.00     0  00:00           0           0       0.000 gal
  WS_JCT119            JUNCTION      0.00     0.00     0  00:00           0           0       0.000 gal
  WS_JCT120            JUNCTION      0.00     0.00     0  00:00           0           0       0.000 gal
  WS_JCT125            JUNCTION      0.00     0.00     0  00:00           0           0       0.000 gal
  WS_JCT126            JUNCTION      0.00     0.00     0  00:00           0           0       0.000 gal
  WS_JCT129            JUNCTION      0.00     0.00     0  00:00           0           0       0.000 gal
  WS_JCT130            JUNCTION      0.00     0.00     0  00:00           0           0       0.000 gal
  WS_JCT132            JUNCTION      0.00     0.00     0  00:00           0           0       0.000 gal
  WS_JCT133            JUNCTION      0.00     0.00     0  00:00           0           0       0.000 gal
  WS_JCT134            JUNCTION      0.00     0.00     0  00:00           0           0       0.000 gal
  WS_JCT135            JUNCTION      0.00     0.00     0  00:00           0           0       0.000 gal
  WS_JCT136            JUNCTION      0.00     0.00     0  00:00           0           0       0.000 gal
  WS_JCT137            JUNCTION      0.00     0.00     0  00:00           0           0       0.000 gal
  WS_JCT138            JUNCTION      0.00     0.00     0  00:00           0           0       0.000 gal
  WS_JCT142            JUNCTION      0.00     0.00     0  00:00           0           0       0.000 gal
  WS_JCT143            JUNCTION      0.00     0.00     0  00:00           0           0       0.000 gal
  WS_JCT145            JUNCTION      0.00     0.00     0  00:00           0           0       0.000 gal
  WS_JCT146            JUNCTION      0.00     0.00     0  00:00           0           0       0.000 gal
  WS_JCT147            JUNCTION      0.00     0.00     0  00:00           0           0       0.000 gal
  WS_JCT148            JUNCTION      0.00     0.00     0  00:00           0           0       0.000 gal
  WS_JCT149            JUNCTION      0.00     0.00     0  00:00           0           0       0.000 gal
  WS_JCT150            JUNCTION      0.00     0.00     0  00:00           0           0       0.000 gal
  WS_JCT151            JUNCTION      0.00     0.00     0  00:00           0           0       0.000 gal
  WS_JCT152            JUNCTION      0.00     0.00     0  00:00           0           0       0.000 gal
  WS_JCT153            JUNCTION      0.00     0.00     0  00:00           0           0       0.000 gal
  WS_JCT154            JUNCTION      0.00     0.00     0  00:00           0           0       0.000 gal
  WS_JCT159            JUNCTION      0.00     0.00     0  00:00           0           0       0.000 gal
  WS_JCT160            JUNCTION      0.00     0.00     0  00:00           0           0       0.000 gal
  WS_JCT161            JUNCTION      0.00     0.00     0  00:00           0           0       0.000 gal
  WS_JCT162            JUNCTION      0.00     0.00     0  00:00           0           0       0.000 gal
  WS_JCT163            JUNCTION      0.00     0.00     0  00:00           0           0       0.000 gal
  WS_JCT164            JUNCTION      0.00     0.00     0  00:00           0           0       0.000 gal
  WS_JCT165            JUNCTION      0.00     0.00     0  00:00           0           0       0.000 gal
  WS_JCT166            JUNCTION      0.00     0.00     0  00:00           0           0       0.000 gal
  WS_JCT167            JUNCTION      0.00     0.00     0  00:00           0           0       0.000 gal
  WS_JCT168            JUNCTION      0.00     0.00     0  00:00           0           0       0.000 gal
  WS_JCT169            JUNCTION      0.00     0.00     0  00:00           0           0       0.000 gal
  WS_JCT170            JUNCTION      0.00     0.00     0  00:00           0           0       0.000 gal
  WS_JCT171            JUNCTION      0.00     0.00     0  00:00           0           0       0.000 gal
  WS_JCT172            JUNCTION      0.00     0.00     0  00:00           0           0       0.000 gal
  WS_JCT173            JUNCTION      0.00     0.00     0  00:00           0           0       0.000 gal
  WS_JCT174            JUNCTION      0.00     0.00     0  00:00           0           0       0.000 gal
  WS_JCT176            JUNCTION      0.00     0.00     0  00:00           0           0       0.000 gal
  WS_JCT177            JUNCTION      0.00     0.00     0  00:00           0           0       0.000 gal
  WS_JCT179            JUNCTION      0.00     0.00     0  00:00           0           0       0.000 gal
  WS_JCT183            JUNCTION      0.00     0.00     0  00:00           0           0       0.000 gal
  WS_JCT185            JUNCTION      0.00     0.00     0  00:00           0           0       0.000 gal
  WS_JCT186            JUNCTION      0.00     0.00     0  00:00           0           0       0.000 gal
  WS_JCT187            JUNCTION      0.00     0.00     0  00:00           0           0       0.000 gal
  WS_JCT188            JUNCTION      0.00     0.00     0  00:00           0           0       0.000 gal
  WS_JCT192            JUNCTION      0.00     0.00     0  00:00           0           0       0.000 gal
  WS_JCT198            JUNCTION      0.00     0.00     0  00:00           0           0       0.000 gal
  WS_JCT199            JUNCTION      0.00     0.00     0  00:00           0           0       0.000 gal
  WS_JCT200            JUNCTION      0.00     0.00     0  00:00           0           0       0.000 gal
  WS_JCT201            JUNCTION      0.00     0.00     0  00:00           0           0       0.000 gal
  WS_JCT202            JUNCTION      0.00     0.00     0  00:00           0           0       0.000 gal
  WS_JCT203            JUNCTION      0.00     0.00     0  00:00           0           0       0.000 gal
  WS_JCT204            JUNCTION      0.00     0.00     0  00:00           0           0       0.000 gal
  WS_JCT205            JUNCTION      0.00     0.00     0  00:00           0           0       0.000 gal
  WS_JCT206            JUNCTION      0.00     0.00     0  00:00           0           0       0.000 gal
  WS_JCT207            JUNCTION      0.00     0.00     0  00:00           0           0       0.000 gal
  WS_JCT208            JUNCTION      0.00     0.00     0  00:00           0           0       0.000 gal
  WS_JCT209            JUNCTION      0.00     0.00     0  00:00           0           0       0.000 gal
  WS_JCT210            JUNCTION      0.00     0.00     0  00:00           0           0       0.000 gal
  WS_JCT211            JUNCTION      0.00     0.00     0  00:00           0           0       0.000 gal
  WS_JCT212            JUNCTION      0.00     0.00     0  00:00           0           0       0.000 gal
  WS_JCT213            JUNCTION      0.00     0.00     0  00:00           0           0       0.000 gal
  WS_JCT216            JUNCTION      0.00     0.00     0  00:00           0           0       0.000 gal
  WS_JCT217            JUNCTION      0.00     0.00     0  00:00           0           0       0.000 gal
  WS_JCT218            JUNCTION      0.00     0.00     0  00:00           0           0       0.000 gal
  WS_JCT219            JUNCTION      0.00     0.00     0  00:00           0           0       0.000 gal
  WS_JCT223            JUNCTION      0.00     0.00     0  00:00           0           0       0.000 gal
  WS_JCT224            JUNCTION      0.00     0.00     0  00:00           0           0       0.000 gal
  WS_JCT225            JUNCTION      0.00     0.00     0  00:00           0           0       0.000 gal
  WS_JCT226            JUNCTION      0.00     0.00     0  00:00           0           0       0.000 gal
  WS_JCT229            JUNCTION      0.00     0.00     0  00:00           0           0       0.000 gal
  WS_JCT230            JUNCTION      0.00     0.00     0  00:00           0           0       0.000 gal
  WS_JCT240            JUNCTION      0.00     0.00     0  00:00           0           0       0.000 gal
  WS_JCT245            JUNCTION      0.00     0.00     0  00:00           0           0       0.000 gal
  WS_JCT247            JUNCTION      0.00     0.00     0  00:00           0           0       0.000 gal
  WS_JCT248            JUNCTION      0.00     0.00     0  00:00           0           0       0.000 gal
  WS_JCT251            JUNCTION      0.00     0.00     0  00:00           0           0       0.000 gal
  WS_JCT254            JUNCTION      0.00     0.00     0  00:00           0           0       0.000 gal
  WS_JCT256            JUNCTION      0.00     0.00     0  00:00           0           0       0.000 gal
  WS_JCT257            JUNCTION      0.00     0.00     0  00:00           0           0       0.000 gal
  WS_JCT258            JUNCTION      0.00     0.00     0  00:00           0           0       0.000 gal
  WS_JCT260            JUNCTION      0.00     0.00     0  00:00           0           0       0.000 gal
  WS_JCT261            JUNCTION      0.00     0.00     0  00:00           0           0       0.000 gal
  WS_JCT262            JUNCTION      0.00     0.00     0  00:00           0           0       0.000 gal
  WS_JCT263            JUNCTION      0.00     0.00     0  00:00           0           0       0.000 gal
  WS_JCT264            JUNCTION      0.00     0.00     0  00:00           0           0       0.000 gal
  WS_JCT265            JUNCTION      0.00     0.00     0  00:00           0           0       0.000 gal
  WS_JCT268            JUNCTION      0.00     0.00     0  00:00           0           0       0.000 gal
  WS_JCT269            JUNCTION      0.00     0.00     0  00:00           0           0       0.000 gal
  WS_JCT270            JUNCTION      0.00     0.00     0  00:00           0           0       0.000 gal
  WS_JCT271            JUNCTION      0.00     0.00     0  00:00           0           0       0.000 gal
  WS_JCT272            JUNCTION      0.00     0.00     0  00:00           0           0       0.000 gal
  WS_JCT273            JUNCTION      0.00     0.00     0  00:00           0           0       0.000 gal
  WS_JCT276            JUNCTION      0.00     0.00     0  00:00           0           0       0.000 gal
  WS_JCT277            JUNCTION      0.00     0.00     0  00:00           0           0       0.000 gal
  WS_JCT278            JUNCTION      0.00     0.00     0  00:00           0           0       0.000 gal
  WS_JCT279            JUNCTION      0.00     0.00     0  00:00           0           0       0.000 gal
  WS_JCT280            JUNCTION      0.00     0.00     0  00:00           0           0       0.000 gal
  WS_JCT281            JUNCTION      0.00     0.00     0  00:00           0           0       0.000 gal
  WS_JCT282            JUNCTION      0.00     0.00     0  00:00           0           0       0.000 gal
  WS_JCT283            JUNCTION      0.00     0.00     0  00:00           0           0       0.000 gal
  WS_JCT284            JUNCTION      0.00     0.00     0  00:00           0           0       0.000 gal
  WS_JCT285            JUNCTION      0.00     0.00     0  00:00           0           0       0.000 gal
  WS_JCT286            JUNCTION      0.00     0.00     0  00:00           0           0       0.000 gal
  WS_JCT287            JUNCTION      0.00     0.00     0  00:00           0           0       0.000 gal
  WS_JCT288            JUNCTION      0.00     0.00     0  00:00           0           0       0.000 gal
  WS_JCT289            JUNCTION      0.00     0.00     0  00:00           0           0       0.000 gal
  WS_JCT290            JUNCTION      0.00     0.00     0  00:00           0           0       0.000 gal
  WS_JCT291            JUNCTION      0.00     0.00     0  00:00           0           0       0.000 gal
  WS_JCT292            JUNCTION      0.00     0.00     0  00:00           0           0       0.000 gal
  WS_JCT293            JUNCTION      0.00     0.00     0  00:00           0           0       0.000 gal
  WS_JCT294            JUNCTION      0.00     0.00     0  00:00           0           0       0.000 gal
  WS_JCT295            JUNCTION      0.00     0.00     0  00:00           0           0       0.000 gal
  WS_JCT298            JUNCTION      0.00     0.00     0  00:00           0           0       0.000 gal
  WS_JCT299            JUNCTION      0.00     0.00     0  00:00           0           0       0.000 gal
  WS_JCT304            JUNCTION      0.00     0.00     0  00:00           0           0       0.000 gal
  WS_JCT305            JUNCTION      0.00     0.00     0  00:00           0           0       0.000 gal
  WS_JCT306            JUNCTION      0.00     0.00     0  00:00           0           0       0.000 gal
  WS_JCT307            JUNCTION      0.00     0.00     0  00:00           0           0       0.000 gal
  WS_JCT308            JUNCTION      0.00     0.00     0  00:00           0           0       0.000 gal
  WS_JCT309            JUNCTION      0.00     0.00     0  00:00           0           0       0.000 gal
  WS_JCT310            JUNCTION      0.00     0.00     0  00:00           0           0       0.000 gal
  WS_JCT311            JUNCTION      0.00     0.00     0  00:00           0           0       0.000 gal
  WS_JCT312            JUNCTION      0.00     0.00     0  00:00           0           0       0.000 gal
  WS_JCT313            JUNCTION      0.00     0.00     0  00:00           0           0       0.000 gal
  WS_JCT314            JUNCTION      0.00     0.00     0  00:00           0           0       0.000 gal
  WS_JCT315            JUNCTION      0.00     0.00     0  00:00           0           0       0.000 gal
  WS_JCT316            JUNCTION      0.00     0.00     0  00:00           0           0       0.000 gal
  WS_JCT317            JUNCTION      0.00     0.00     0  00:00           0           0       0.000 gal
  WS_JCT318            JUNCTION      0.00     0.00     0  00:00           0           0       0.000 gal
  WS_JCT327            JUNCTION      0.00     0.00     0  00:00           0           0       0.000 gal
  WS_JCT328            JUNCTION      0.00     0.00     0  00:00           0           0       0.000 gal
  WS_JCT329            JUNCTION      0.00     0.00     0  00:00           0           0       0.000 gal
  WS_JCT330            JUNCTION      0.00     0.00     0  00:00           0           0       0.000 gal
  WS_JCT331            JUNCTION      0.00     0.00     0  00:00           0           0       0.000 gal
  WS_JCT332            JUNCTION      0.00     0.00     0  00:00           0           0       0.000 gal
  WS_JCT333            JUNCTION      0.00     0.00     0  00:00           0           0       0.000 gal
  WS_JCT334            JUNCTION      0.00     0.00     0  00:00           0           0       0.000 gal
  WS_JCT335            JUNCTION      0.00     0.00     0  00:00           0           0       0.000 gal
  WS_JCT336            JUNCTION      0.00     0.00     0  00:00           0           0       0.000 gal
  WS_JCT339            JUNCTION      0.00     0.00     0  00:00           0           0       0.000 gal
  WS_JCT340            JUNCTION      0.00     0.00     0  00:00           0           0       0.000 gal
  WS_JCT345            JUNCTION      0.00     0.00     0  00:00           0           0       0.000 gal
  WS_JCT350            JUNCTION      0.00     0.00     0  00:00           0           0       0.000 gal
  WS_JCT354            JUNCTION      0.00     0.00     0  00:00           0           0       0.000 gal
  WS_JCT355            JUNCTION      0.00     0.00     0  00:00           0           0       0.000 gal
  WS_JCT356            JUNCTION      0.00     0.00     0  00:00           0           0       0.000 gal
  WS_JCT358            JUNCTION      0.00     0.00     0  00:00           0           0       0.000 gal
  WS_JCT359            JUNCTION      0.00     0.00     0  00:00           0           0       0.000 gal
  WS_JCT360            JUNCTION      0.00     0.00     0  00:00           0           0       0.000 gal
  WS_JCT361            JUNCTION      0.00     0.00     0  00:00           0           0       0.000 gal
  WS_JCT362            JUNCTION      0.00     0.00     0  00:00           0           0       0.000 gal
  WS_JCT363            JUNCTION      0.00     0.00     0  00:00           0           0       0.000 gal
  WS_JCT364            JUNCTION      0.00     0.00     0  00:00           0           0       0.000 gal
  WS_JCT365            JUNCTION      0.00     0.00     0  00:00           0           0       0.000 gal
  WS_JCT366            JUNCTION      0.00     0.00     0  00:00           0           0       0.000 gal
  WS_JCT367            JUNCTION      0.00     0.00     0  00:00           0           0       0.000 gal
  WS_JCT368            JUNCTION      0.00     0.00     0  00:00           0           0       0.000 gal
  WS_JCT369            JUNCTION      0.00     0.00     0  00:00           0           0       0.000 gal
  WS_JCT370            JUNCTION      0.00     0.00     0  00:00           0           0       0.000 gal
  WS_JCT371            JUNCTION      0.00     0.00     0  00:00           0           0       0.000 gal
  WS_JCT372            JUNCTION      0.00     0.00     0  00:00           0           0       0.000 gal
  WS_JCT373            JUNCTION      0.00     0.00     0  00:00           0           0       0.000 gal
  WS_JCT374            JUNCTION      0.00     0.00     0  00:00           0           0       0.000 gal
  WS_JCT381            JUNCTION      0.00     0.00     0  00:00           0           0       0.000 gal
  WS_JCT382            JUNCTION      0.00     0.00     0  00:00           0           0       0.000 gal
  WS_JCT383            JUNCTION      0.00     0.00     0  00:00           0           0       0.000 gal
  WS_JCT384            JUNCTION      0.00     0.00     0  00:00           0           0       0.000 gal
  WS_JCT385            JUNCTION      0.00     0.00     0  00:00           0           0       0.000 gal
  WS_JCT386            JUNCTION      0.00     0.00     0  00:00           0           0       0.000 gal
  WS_JCT388            JUNCTION      0.00     0.00     0  00:00           0           0       0.000 gal
  WS_JCT389            JUNCTION      0.00     0.00     0  00:00           0           0       0.000 gal
  WS_JCT390            JUNCTION      0.00     0.00     0  00:00           0           0       0.000 gal
  WS_JCT391            JUNCTION      0.00     0.00     0  00:00           0           0       0.000 gal
  WS_JCT392            JUNCTION      0.00     0.00     0  00:00           0           0       0.000 gal
  WS_JCT393            JUNCTION      0.00     0.00     0  00:00           0           0       0.000 gal
  WS_JCT394            JUNCTION      0.00     0.00     0  00:00           0           0       0.000 gal
  WS_JCT395            JUNCTION      0.00     0.00     0  00:00           0           0       0.000 gal
  WS_JCT396            JUNCTION      0.00     0.00     0  00:00           0           0       0.000 gal
  WS_JCT397            JUNCTION      0.00     0.00     0  00:00           0           0       0.000 gal
  WS_JCT398            JUNCTION      0.00     0.00     0  00:00           0           0       0.000 gal
  WS_JCT402            JUNCTION      0.00     0.00     0  00:00           0           0       0.000 gal
  WS_JCT403            JUNCTION      0.00     0.00     0  00:00           0           0       0.000 gal
  WS_JCT404            JUNCTION      0.00     0.00     0  00:00           0           0       0.000 gal
  WS_JCT405            JUNCTION      0.00     0.00     0  00:00           0           0       0.000 gal
  WS_JCT406            JUNCTION      0.00     0.00     0  00:00           0           0       0.000 gal
  WS_JCT407            JUNCTION      0.00     0.00     0  00:00           0           0       0.000 gal
  WS_JCT411            JUNCTION      0.00     0.00     0  00:00           0           0       0.000 gal
  WS_JCT412            JUNCTION      0.00     0.00     0  00:00           0           0       0.000 gal
  WS_JCT413            JUNCTION      0.00     0.00     0  00:00           0           0       0.000 gal
  WS_JCT414            JUNCTION      0.00     0.00     0  00:00           0           0       0.000 gal
  WS_JCT415            JUNCTION      0.00     0.00     0  00:00           0           0       0.000 gal
  WS_JCT416            JUNCTION      0.00     0.00     0  00:00           0           0       0.000 gal
  WS_OFALL100          OUTFALL       0.00     0.00     0  00:00           0           0       0.000 gal
  WS_OFALL101          OUTFALL       0.00     0.00     0  00:00           0           0       0.000 gal
  WS_OFALL102          OUTFALL       0.00     0.00     0  00:00           0           0       0.000 gal
  WS_OFALL104          OUTFALL       0.00     0.00     0  00:00           0           0       0.000 gal
  WS_NAT_STORAGE_01A   STORAGE       0.00     0.00     0  00:00           0           0       0.000 gal
  WS_PND30             STORAGE       0.00     0.00     0  00:00           0           0       0.000 gal
  WS_PND31             STORAGE       0.00     0.00     0  00:00           0           0       0.000 gal
  WS_PND32             STORAGE       0.00     0.00     0  00:00           0           0       0.000 gal
  WS_PND33             STORAGE       0.00     0.00     0  00:00           0           0       0.000 gal
  WS_PND34             STORAGE       0.00     0.00     0  00:00           0           0       0.000 gal
  WS_PND35             STORAGE       0.00     0.00     0  00:00           0           0       0.000 gal
  WS_PND36             STORAGE       0.00     0.00     0  00:00           0           0       0.000 gal
  
  
  **********************
  Node Surcharge Summary
  **********************
  
  No nodes were surcharged.
  
  
  *********************
  Node Flooding Summary
  *********************
  
  No nodes were flooded.
  
  
  **********************
  Storage Volume Summary
  **********************
  
  --------------------------------------------------------------------------------------------------
                         Average     Avg  Evap Exfil       Maximum     Max    Time of Max    Maximum
                          Volume    Pcnt  Pcnt  Pcnt        Volume    Pcnt     Occurrence    Outflow
  Storage Unit          1000 ft3    Full  Loss  Loss      1000 ft3    Full    days hr:min        CFS
  --------------------------------------------------------------------------------------------------
  WS_NAT_STORAGE_01A   -nan(ind)    -nan(ind)     0     0         0.000       0       0  00:00       0.00
  WS_PND30             -nan(ind)    -nan(ind)     0     0         0.000       0       0  00:00       0.00
  WS_PND31             -nan(ind)    -nan(ind)     0     0         0.000       0       0  00:00       0.00
  WS_PND32             -nan(ind)    -nan(ind)     0     0         0.000       0       0  00:00       0.00
  WS_PND33             -nan(ind)    -nan(ind)     0     0         0.000       0       0  00:00       0.00
  WS_PND34             -nan(ind)    -nan(ind)     0     0         0.000       0       0  00:00       0.00
  WS_PND35             -nan(ind)    -nan(ind)     0     0         0.000       0       0  00:00       0.00
  WS_PND36             -nan(ind)    -nan(ind)     0     0         0.000       0       0  00:00       0.00
  
  
  ***********************
  Outfall Loading Summary
  ***********************
  
  -----------------------------------------------------------
                         Flow       Avg       Max       Total
                         Freq      Flow      Flow      Volume
  Outfall Node           Pcnt       CFS       CFS    10^6 gal
  -----------------------------------------------------------
  WS_OFALL100         -nan(ind)      0.00      0.00       0.000
  WS_OFALL101         -nan(ind)      0.00      0.00       0.000
  WS_OFALL102         -nan(ind)      0.00      0.00       0.000
  WS_OFALL104         -nan(ind)      0.00      0.00       0.000
  -----------------------------------------------------------
  System              -nan(ind)      0.00      0.00       0.000
  
  
  ********************
  Link Flow Summary
  ********************
  
  -----------------------------------------------------------------------------
                                 Maximum  Time of Max   Maximum    Max/    Max/
                                  |Flow|   Occurrence   |Veloc|    Full    Full
  Link                 Type          CFS  days hr:min    ft/sec    Flow   Depth
  -----------------------------------------------------------------------------
  WS_CDT100            CONDUIT      0.00     0  00:00      0.00    0.00    0.00
  WS_CDT101            CONDUIT      0.00     0  00:00      0.00    0.00    0.00
  WS_CDT102            CONDUIT      0.00     0  00:00      0.00    0.00    0.00
  WS_CDT103            CONDUIT      0.00     0  00:00      0.00    0.00    0.00
  WS_CDT104            CONDUIT      0.00     0  00:00      0.00    0.00    0.00
  WS_CDT105            CONDUIT      0.00     0  00:00      0.00    0.00    0.00
  WS_CDT106            CONDUIT      0.00     0  00:00      0.00    0.00    0.00
  WS_CDT109            CONDUIT      0.00     0  00:00      0.00    0.00    0.00
  WS_CDT110            CONDUIT      0.00     0  00:00      0.00    0.00    0.00
  WS_CDT111            CONDUIT      0.00     0  00:00      0.00    0.00    0.00
  WS_CDT113            CONDUIT      0.00     0  00:00      0.00    0.00    0.00
  WS_CDT114            CONDUIT      0.00     0  00:00      0.00    0.00    0.00
  WS_CDT115            CONDUIT      0.00     0  00:00      0.00    0.00    0.00
  WS_CDT116            CONDUIT      0.00     0  00:00      0.00    0.00    0.00
  WS_CDT117            CONDUIT      0.00     0  00:00      0.00    0.00    0.00
  WS_CDT118            CONDUIT      0.00     0  00:00      0.00    0.00    0.00
  WS_CDT125            CONDUIT      0.00     0  00:00      0.00    0.00    0.00
  WS_CDT126            CONDUIT      0.00     0  00:00      0.00    0.00    0.00
  WS_CDT127            CONDUIT      0.00     0  00:00      0.00    0.00    0.00
  WS_CDT128            CONDUIT      0.00     0  00:00      0.00    0.00    0.00
  WS_CDT129            CONDUIT      0.00     0  00:00      0.00    0.00    0.00
  WS_CDT130            CONDUIT      0.00     0  00:00      0.00    0.00    0.00
  WS_CDT131            CONDUIT      0.00     0  00:00      0.00    0.00    0.00
  WS_CDT132            CONDUIT      0.00     0  00:00      0.00    0.00    0.00
  WS_CDT133            CONDUIT      0.00     0  00:00      0.00    0.00    0.00
  WS_CDT134            CONDUIT      0.00     0  00:00      0.00    0.00    0.00
  WS_CDT135            CONDUIT      0.00     0  00:00      0.00    0.00    0.00
  WS_CDT136            CONDUIT      0.00     0  00:00      0.00    0.00    0.00
  WS_CDT137            CONDUIT      0.00     0  00:00      0.00    0.00    0.00
  WS_CDT138            CONDUIT      0.00     0  00:00      0.00    0.00    0.00
  WS_CDT139            CONDUIT      0.00     0  00:00      0.00    0.00    0.00
  WS_CDT140            CONDUIT      0.00     0  00:00      0.00    0.00    0.00
  WS_CDT141            CONDUIT      0.00     0  00:00      0.00    0.00    0.00
  WS_CDT144            CONDUIT      0.00     0  00:00      0.00    0.00    0.00
  WS_CDT145            CONDUIT      0.00     0  00:00      0.00    0.00    0.00
  WS_CDT146            CONDUIT      0.00     0  00:00      0.00    0.00    0.00
  WS_CDT147            CONDUIT      0.00     0  00:00      0.00    0.00    0.00
  WS_CDT148            CONDUIT      0.00     0  00:00      0.00    0.00    0.00
  WS_CDT149            CONDUIT      0.00     0  00:00      0.00    0.00    0.00
  WS_CDT150            CONDUIT      0.00     0  00:00      0.00    0.00    0.00
  WS_CDT151            CONDUIT      0.00     0  00:00      0.00    0.00    0.00
  WS_CDT152            CONDUIT      0.00     0  00:00      0.00    0.00    0.00
  WS_CDT153            CONDUIT      0.00     0  00:00      0.00    0.00    0.00
  WS_CDT154            CONDUIT      0.00     0  00:00      0.00    0.00    0.00
  WS_CDT156            CONDUIT      0.00     0  00:00      0.00    0.00    0.00
  WS_CDT157            CONDUIT      0.00     0  00:00      0.00    0.00    0.00
  WS_CDT159            CONDUIT      0.00     0  00:00      0.00    0.00    0.00
  WS_CDT160            CONDUIT      0.00     0  00:00      0.00    0.00    0.00
  WS_CDT161            CONDUIT      0.00     0  00:00      0.00    0.00    0.00
  WS_CDT162            CONDUIT      0.00     0  00:00      0.00    0.00    0.00
  WS_CDT163            CONDUIT      0.00     0  00:00      0.00    0.00    0.00
  WS_CDT164            CONDUIT      0.00     0  00:00      0.00    0.00    0.00
  WS_CDT165            CONDUIT      0.00     0  00:00      0.00    0.00    0.00
  WS_CDT166            CONDUIT      0.00     0  00:00      0.00    0.00    0.00
  WS_CDT169            CONDUIT      0.00     0  00:00      0.00    0.00    0.00
  WS_CDT170            CONDUIT      0.00     0  00:00      0.00    0.00    0.00
  WS_CDT171            CONDUIT      0.00     0  00:00      0.00    0.00    0.00
  WS_CDT175            CONDUIT      0.00     0  00:00      0.00    0.00    0.00
  WS_CDT177            CONDUIT      0.00     0  00:00      0.00    0.00    0.00
  WS_CDT178            CONDUIT      0.00     0  00:00      0.00    0.00    0.00
  WS_CDT179            CONDUIT      0.00     0  00:00      0.00    0.00    0.00
  WS_CDT180            CONDUIT      0.00     0  00:00      0.00    0.00    0.00
  WS_CDT181            CONDUIT      0.00     0  00:00      0.00    0.00    0.00
  WS_CDT182            CONDUIT      0.00     0  00:00      0.00    0.00    0.00
  WS_CDT183            CONDUIT      0.00     0  00:00      0.00    0.00    0.00
  WS_CDT184            CONDUIT      0.00     0  00:00      0.00    0.00    0.00
  WS_CDT185            CONDUIT      0.00     0  00:00      0.00    0.00    0.00
  WS_CDT186            CONDUIT      0.00     0  00:00      0.00    0.00    0.00
  WS_CDT187            CONDUIT      0.00     0  00:00      0.00    0.00    0.00
  WS_CDT188            CONDUIT      0.00     0  00:00      0.00    0.00    0.00
  WS_CDT189            CONDUIT      0.00     0  00:00      0.00    0.00    0.00
  WS_CDT190            CONDUIT      0.00     0  00:00      0.00    0.00    0.00
  WS_CDT191            CONDUIT      0.00     0  00:00      0.00    0.00    0.00
  WS_CDT192            CONDUIT      0.00     0  00:00      0.00    0.00    0.00
  WS_CDT193            CONDUIT      0.00     0  00:00      0.00    0.00    0.00
  WS_CDT194            CONDUIT      0.00     0  00:00      0.00    0.00    0.00
  WS_CDT196            CONDUIT      0.00     0  00:00      0.00    0.00    0.00
  WS_CDT197            CONDUIT      0.00     0  00:00      0.00    0.00    0.00
  WS_CDT198            CONDUIT      0.00     0  00:00      0.00    0.00    0.00
  WS_CDT199            CONDUIT      0.00     0  00:00      0.00    0.00    0.00
  WS_CDT200            CONDUIT      0.00     0  00:00      0.00    0.00    0.00
  WS_CDT201            CONDUIT      0.00     0  00:00      0.00    0.00    0.00
  WS_CDT204            CONDUIT      0.00     0  00:00      0.00    0.00    0.00
  WS_CDT208            CONDUIT      0.00     0  00:00      0.00    0.00    0.00
  WS_CDT209            CONDUIT      0.00     0  00:00      0.00    0.00    0.00
  WS_CDT210            CONDUIT      0.00     0  00:00      0.00    0.00    0.00
  WS_CDT211            CONDUIT      0.00     0  00:00      0.00    0.00    0.00
  WS_CDT212            CONDUIT      0.00     0  00:00      0.00    0.00    0.00
  WS_CDT213            CONDUIT      0.00     0  00:00      0.00    0.00    0.00
  WS_CDT214            CONDUIT      0.00     0  00:00      0.00    0.00    0.00
  WS_CDT215            CONDUIT      0.00     0  00:00      0.00    0.00    0.00
  WS_CDT216            CONDUIT      0.00     0  00:00      0.00    0.00    0.00
  WS_CDT217            CONDUIT      0.00     0  00:00      0.00    0.00    0.00
  WS_CDT218            CONDUIT      0.00     0  00:00      0.00    0.00    0.00
  WS_CDT219            CONDUIT      0.00     0  00:00      0.00    0.00    0.00
  WS_CDT222            CONDUIT      0.00     0  00:00      0.00    0.00    0.00
  WS_CDT223            CONDUIT      0.00     0  00:00      0.00    0.00    0.00
  WS_CDT224            CONDUIT      0.00     0  00:00      0.00    0.00    0.00
  WS_CDT225            CONDUIT      0.00     0  00:00      0.00    0.00    0.00
  WS_CDT226            CONDUIT      0.00     0  00:00      0.00    0.00    0.00
  WS_CDT227            CONDUIT      0.00     0  00:00      0.00    0.00    0.00
  WS_CDT228            CONDUIT      0.00     0  00:00      0.00    0.00    0.00
  WS_CDT230            CONDUIT      0.00     0  00:00      0.00    0.00    0.00
  WS_CDT231            CONDUIT      0.00     0  00:00      0.00    0.00    0.00
  WS_CDT233            CONDUIT      0.00     0  00:00      0.00    0.00    0.00
  WS_CDT234            CONDUIT      0.00     0  00:00      0.00    0.00    0.00
  WS_CDT235            CONDUIT      0.00     0  00:00      0.00    0.00    0.00
  WS_CDT236            CONDUIT      0.00     0  00:00      0.00    0.00    0.00
  WS_CDT237            CONDUIT      0.00     0  00:00      0.00    0.00    0.00
  WS_CDT241            CONDUIT      0.00     0  00:00      0.00    0.00    0.00
  WS_CDT242            CONDUIT      0.00     0  00:00      0.00    0.00    0.00
  WS_CDT243            CONDUIT      0.00     0  00:00      0.00    0.00    0.00
  WS_CDT246            CONDUIT      0.00     0  00:00      0.00    0.00    0.00
  WS_CDT247            CONDUIT      0.00     0  00:00      0.00    0.00    0.00
  WS_CDT248            CONDUIT      0.00     0  00:00      0.00    0.00    0.00
  WS_CDT249            CONDUIT      0.00     0  00:00      0.00    0.00    0.00
  WS_CDT250            CONDUIT      0.00     0  00:00      0.00    0.00    0.00
  WS_CDT251            CONDUIT      0.00     0  00:00      0.00    0.00    0.00
  WS_CDT252            CONDUIT      0.00     0  00:00      0.00    0.00    0.00
  WS_CDT253            CONDUIT      0.00     0  00:00      0.00    0.00    0.00
  WS_CDT254            CONDUIT      0.00     0  00:00      0.00    0.00    0.00
  WS_CDT255            CONDUIT      0.00     0  00:00      0.00    0.00    0.00
  WS_CDT256            CONDUIT      0.00     0  00:00      0.00    0.00    0.00
  WS_CDT257            CONDUIT      0.00     0  00:00      0.00    0.00    0.00
  WS_CDT258            CONDUIT      0.00     0  00:00      0.00    0.00    0.00
  WS_CDT264            CONDUIT      0.00     0  00:00      0.00    0.00    0.00
  WS_CDT265            CONDUIT      0.00     0  00:00      0.00    0.00    0.00
  WS_CDT266            CONDUIT      0.00     0  00:00      0.00    0.00    0.00
  WS_CDT268            CONDUIT      0.00     0  00:00      0.00    0.00    0.00
  WS_CDT270            CONDUIT      0.00     0  00:00      0.00    0.00    0.00
  WS_CDT271            CONDUIT      0.00     0  00:00      0.00    0.00    0.00
  WS_CDT272            CONDUIT      0.00     0  00:00      0.00    0.00    0.00
  WS_CDT275            CONDUIT      0.00     0  00:00      0.00    0.00    0.00
  WS_CDT276            CONDUIT      0.00     0  00:00      0.00    0.00    0.00
  WS_CDT277            CONDUIT      0.00     0  00:00      0.00    0.00    0.00
  WS_CDT281            CONDUIT      0.00     0  00:00      0.00    0.00    0.00
  WS_CDT282            CONDUIT      0.00     0  00:00      0.00    0.00    0.00
  WS_CDT283            CONDUIT      0.00     0  00:00      0.00    0.00    0.00
  WS_CDT284            CONDUIT      0.00     0  00:00      0.00    0.00    0.00
  WS_CDT285            CONDUIT      0.00     0  00:00      0.00    0.00    0.00
  WS_CDT286            CONDUIT      0.00     0  00:00      0.00    0.00    0.00
  WS_CDT287            CONDUIT      0.00     0  00:00      0.00    0.00    0.00
  WS_CDT288            CONDUIT      0.00     0  00:00      0.00    0.00    0.00
  WS_CDT289            CONDUIT      0.00     0  00:00      0.00    0.00    0.00
  WS_CDT290            CONDUIT      0.00     0  00:00      0.00    0.00    0.00
  WS_CDT291            CONDUIT      0.00     0  00:00      0.00    0.00    0.00
  WS_CDT292            CONDUIT      0.00     0  00:00      0.00    0.00    0.00
  WS_CDT302            CONDUIT      0.00     0  00:00      0.00    0.00    0.00
  WS_CDT306            CONDUIT      0.00     0  00:00      0.00    0.00    0.00
  WS_CDT309            CONDUIT      0.00     0  00:00      0.00    0.00    0.00
  WS_CDT315            CONDUIT      0.00     0  00:00      0.00    0.00    0.00
  WS_CDT316            CONDUIT      0.00     0  00:00      0.00    0.00    0.00
  WS_CDT323            CONDUIT      0.00     0  00:00      0.00    0.00    0.00
  WS_CDT327            CONDUIT      0.00     0  00:00      0.00    0.00    0.00
  WS_CDT328            CONDUIT      0.00     0  00:00      0.00    0.00    0.00
  WS_CDT329            CHANNEL      0.00     0  00:00      0.00    0.00    0.00
  WS_CDT330            CHANNEL      0.00     0  00:00      0.00    0.00    0.00
  WS_CDT331            CHANNEL      0.00     0  00:00      0.00    0.00    0.00
  WS_CDT332            CHANNEL      0.00     0  00:00      0.00    0.00    0.00
  WS_CDT333            CHANNEL      0.00     0  00:00      0.00    0.00    0.00
  WS_CDT334            CHANNEL      0.00     0  00:00      0.00    0.00    0.00
  WS_CDT337            CHANNEL      0.00     0  00:00      0.00    0.00    0.00
  WS_CDT338            CONDUIT      0.00     0  00:00      0.00    0.00    0.00
  WS_CDT339            CHANNEL      0.00     0  00:00      0.00    0.00    0.00
  WS_CDT340            CHANNEL      0.00     0  00:00      0.00    0.00    0.00
  WS_CDT341            CONDUIT      0.00     0  00:00      0.00    0.00    0.00
  WS_CDT342            CONDUIT      0.00     0  00:00      0.00    0.00    0.00
  WS_CDT343            CONDUIT      0.00     0  00:00      0.00    0.00    0.00
  WS_CDT344            CONDUIT      0.00     0  00:00      0.00    0.00    0.00
  WS_CDT345            CONDUIT      0.00     0  00:00      0.00    0.00    0.00
  WS_CDT346            CONDUIT      0.00     0  00:00      0.00    0.00    0.00
  WS_CDT347            CONDUIT      0.00     0  00:00      0.00    0.00    0.00
  WS_CDT348            CONDUIT      0.00     0  00:00      0.00    0.00    0.00
  WS_CDT349            CONDUIT      0.00     0  00:00      0.00    0.00    0.00
  WS_CDT350            CONDUIT      0.00     0  00:00      0.00    0.00    0.00
  WS_CDT380            CONDUIT      0.00     0  00:00      0.00    0.00    0.00
  WS_CDT381            CONDUIT      0.00     0  00:00      0.00    0.00    0.00
  WS_CDT382            CONDUIT      0.00     0  00:00      0.00    0.00    0.00
  WS_CDT383            CONDUIT      0.00     0  00:00      0.00    0.00    0.00
  WS_CDT384            CONDUIT      0.00     0  00:00      0.00    0.00    0.00
  WS_CDT385            CONDUIT      0.00     0  00:00      0.00    0.00    0.00
  WS_CDT386            CONDUIT      0.00     0  00:00      0.00    0.00    0.00
  WS_CDT387            CONDUIT      0.00     0  00:00      0.00    0.00    0.00
  WS_CDT388            CONDUIT      0.00     0  00:00      0.00    0.00    0.00
  WS_CDT390            CONDUIT      0.00     0  00:00      0.00    0.00    0.00
  WS_CDT391            CONDUIT      0.00     0  00:00      0.00    0.00    0.00
  WS_CDT392            CONDUIT      0.00     0  00:00      0.00    0.00    0.00
  WS_CDT393            CONDUIT      0.00     0  00:00      0.00    0.00    0.00
  WS_CDT394            CONDUIT      0.00     0  00:00      0.00    0.00    0.00
  WS_CDT398            CONDUIT      0.00     0  00:00      0.00    0.00    0.00
  WS_CDT400            CONDUIT      0.00     0  00:00      0.00    0.00    0.00
  WS_CDT402            CONDUIT      0.00     0  00:00      0.00    0.00    0.00
  WS_WEIR100           WEIR         0.00     0  00:00                      0.00
  WS_WEIR101           WEIR         0.00     0  00:00                      0.00
  WS_WEIR102           WEIR         0.00     0  00:00                      0.00
  WS_WEIR103           WEIR         0.00     0  00:00                      0.00
  WS_WEIR104           WEIR         0.00     0  00:00                      0.00
  WS_WEIR105           WEIR         0.00     0  00:00                      0.00
  WS_WEIR106           WEIR         0.00     0  00:00                      0.00
  WS_WEIR107           WEIR         0.00     0  00:00                      0.00
  WS_WEIR108           WEIR         0.00     0  00:00                      0.00
  WS_WEIR109           WEIR         0.00     0  00:00                      0.00
  WS_WEIR109A          WEIR         0.00     0  00:00                      0.00
  WS_WEIR110           WEIR         0.00     0  00:00                      0.00
  WS_WEIR111           WEIR         0.00     0  00:00                      0.00
  WS_WEIR112           WEIR         0.00     0  00:00                      0.00
  WS_WEIR113           WEIR         0.00     0  00:00                      0.00
  WS_WEIR114           WEIR         0.00     0  00:00                      0.00
  WS_WEIR115           WEIR         0.00     0  00:00                      0.00
  WS_WEIR116           WEIR         0.00     0  00:00                      0.00
  WS_WEIR117           WEIR         0.00     0  00:00                      0.00
  WS_WEIR118           WEIR         0.00     0  00:00                      0.00
  WS_WEIR119           WEIR         0.00     0  00:00                      0.00
  WS_WEIR120           WEIR         0.00     0  00:00                      0.00
  WS_WEIR121           WEIR         0.00     0  00:00                      0.00
  WS_WEIR122           WEIR         0.00     0  00:00                      0.00
  WS_WEIR123           WEIR         0.00     0  00:00                      0.00
  WS_WEIR124           WEIR         0.00     0  00:00                      0.00
  WS_WEIR125           WEIR         0.00     0  00:00                      0.00
  WS_WEIR126           WEIR         0.00     0  00:00                      0.00
  WS_WEIR127           WEIR         0.00     0  00:00                      0.00
  WS_WEIR128           WEIR         0.00     0  00:00                      0.00
  WS_WEIR129           WEIR         0.00     0  00:00                      0.00
  WS_WEIR130           WEIR         0.00     0  00:00                      0.00
  WS_WEIR131           WEIR         0.00     0  00:00                      0.00
  WS_WEIR132           WEIR         0.00     0  00:00                      0.00
  WS_WEIR133           WEIR         0.00     0  00:00                      0.00
  WS_WEIR134           WEIR         0.00     0  00:00                      0.00
  WS_WEIR141           WEIR         0.00     0  00:00                      0.00
  WS_WEIR142           WEIR         0.00     0  00:00                      0.00
  WS_WEIR143           WEIR         0.00     0  00:00                      0.00
  WS_WEIR144           WEIR         0.00     0  00:00                      0.00
  WS_WEIR145           WEIR         0.00     0  00:00                      0.00
  WS_WEIR146           WEIR         0.00     0  00:00                      0.00
  WS_WEIR147           WEIR         0.00     0  00:00                      0.00
  WS_WEIR148           WEIR         0.00     0  00:00                      0.00
  WS_WEIR149           WEIR         0.00     0  00:00                      0.00
  WS_WEIR150           WEIR         0.00     0  00:00                      0.00
  WS_WEIR151           WEIR         0.00     0  00:00                      0.00
  WS_WEIR155           WEIR         0.00     0  00:00                      0.00
  WS_WEIR156           WEIR         0.00     0  00:00                      0.00
  WS_WEIR157           WEIR         0.00     0  00:00                      0.00
  WS_WEIR158           WEIR         0.00     0  00:00                      0.00
  WS_WEIR159           WEIR         0.00     0  00:00                      0.00
  WS_WEIR166           WEIR         0.00     0  00:00                      0.00
  WS_WEIR167           WEIR         0.00     0  00:00                      0.00
  WS_WEIR169           WEIR         0.00     0  00:00                      0.00
  WS_WEIR170           WEIR         0.00     0  00:00                      0.00
  WS_WEIR171           WEIR         0.00     0  00:00                      0.00
  WS_WEIR172           WEIR         0.00     0  00:00                      0.00
  WS_WEIR173           WEIR         0.00     0  00:00                      0.00
  WS_WEIR174           WEIR         0.00     0  00:00                      0.00
  WS_WEIR175           WEIR         0.00     0  00:00                      0.00
  WS_WEIR176           WEIR         0.00     0  00:00                      0.00
  WS_WEIR177           WEIR         0.00     0  00:00                      0.00
  WS_WEIR178           WEIR         0.00     0  00:00                      0.00
  WS_WEIR179           WEIR         0.00     0  00:00                      0.00
  WS_WEIR180           WEIR         0.00     0  00:00                      0.00
  WS_WEIR181           WEIR         0.00     0  00:00                      0.00
  WS_WEIR182           WEIR         0.00     0  00:00                      0.00
  WS_WEIR183           WEIR         0.00     0  00:00                      0.00
  WS_WEIR184           WEIR         0.00     0  00:00                      0.00
  WS_WEIR185           WEIR         0.00     0  00:00                      0.00
  WS_WEIR186           WEIR         0.00     0  00:00                      0.00
  WS_WEIR187           WEIR         0.00     0  00:00                      0.00
  WS_WEIR188           WEIR         0.00     0  00:00                      0.00
  WS_WEIR189           WEIR         0.00     0  00:00                      0.00
  WS_WEIR190           WEIR         0.00     0  00:00                      0.00
  WS_WEIR191           WEIR         0.00     0  00:00                      0.00
  WS_WEIR192           WEIR         0.00     0  00:00                      0.00
  WS_WEIR193           WEIR         0.00     0  00:00                      0.00
  WS_WEIR194           WEIR         0.00     0  00:00                      0.00
[...]
  WS_CDT153               1.27   -nan(ind)  -nan(ind)  -nan(ind)  -nan(ind)  -nan(ind)  -nan(ind)  -nan(ind)  -nan(ind)  -nan(ind)
  WS_CDT154               1.31   -nan(ind)  -nan(ind)  -nan(ind)  -nan(ind)  -nan(ind)  -nan(ind)  -nan(ind)  -nan(ind)  -nan(ind)
  WS_CDT156               1.31   -nan(ind)  -nan(ind)  -nan(ind)  -nan(ind)  -nan(ind)  -nan(ind)  -nan(ind)  -nan(ind)  -nan(ind)
  WS_CDT157               3.19   -nan(ind)  -nan(ind)  -nan(ind)  -nan(ind)  -nan(ind)  -nan(ind)  -nan(ind)  -nan(ind)  -nan(ind)
  WS_CDT159               6.98   -nan(ind)  -nan(ind)  -nan(ind)  -nan(ind)  -nan(ind)  -nan(ind)  -nan(ind)  -nan(ind)  -nan(ind)
  WS_CDT160               6.83   -nan(ind)  -nan(ind)  -nan(ind)  -nan(ind)  -nan(ind)  -nan(ind)  -nan(ind)  -nan(ind)  -nan(ind)
  WS_CDT161               1.92   -nan(ind)  -nan(ind)  -nan(ind)  -nan(ind)  -nan(ind)  -nan(ind)  -nan(ind)  -nan(ind)  -nan(ind)
  WS_CDT162               1.67   -nan(ind)  -nan(ind)  -nan(ind)  -nan(ind)  -nan(ind)  -nan(ind)  -nan(ind)  -nan(ind)  -nan(ind)
  WS_CDT163               2.14   -nan(ind)  -nan(ind)  -nan(ind)  -nan(ind)  -nan(ind)  -nan(ind)  -nan(ind)  -nan(ind)  -nan(ind)
  WS_CDT164               2.15   -nan(ind)  -nan(ind)  -nan(ind)  -nan(ind)  -nan(ind)  -nan(ind)  -nan(ind)  -nan(ind)  -nan(ind)
  WS_CDT165               2.62   -nan(ind)  -nan(ind)  -nan(ind)  -nan(ind)  -nan(ind)  -nan(ind)  -nan(ind)  -nan(ind)  -nan(ind)
  WS_CDT166               1.00   -nan(ind)  -nan(ind)  -nan(ind)  -nan(ind)  -nan(ind)  -nan(ind)  -nan(ind)  -nan(ind)  -nan(ind)
  WS_CDT169               3.21   -nan(ind)  -nan(ind)  -nan(ind)  -nan(ind)  -nan(ind)  -nan(ind)  -nan(ind)  -nan(ind)  -nan(ind)
  WS_CDT170               7.85   -nan(ind)  -nan(ind)  -nan(ind)  -nan(ind)  -nan(ind)  -nan(ind)  -nan(ind)  -nan(ind)  -nan(ind)
  WS_CDT171               2.26   -nan(ind)  -nan(ind)  -nan(ind)  -nan(ind)  -nan(ind)  -nan(ind)  -nan(ind)  -nan(ind)  -nan(ind)
  WS_CDT175               4.36   -nan(ind)  -nan(ind)  -nan(ind)  -nan(ind)  -nan(ind)  -nan(ind)  -nan(ind)  -nan(ind)  -nan(ind)
  WS_CDT177               3.13   -nan(ind)  -nan(ind)  -nan(ind)  -nan(ind)  -nan(ind)  -nan(ind)  -nan(ind)  -nan(ind)  -nan(ind)
  WS_CDT178               2.80   -nan(ind)  -nan(ind)  -nan(ind)  -nan(ind)  -nan(ind)  -nan(ind)  -nan(ind)  -nan(ind)  -nan(ind)
  WS_CDT179               1.17   -nan(ind)  -nan(ind)  -nan(ind)  -nan(ind)  -nan(ind)  -nan(ind)  -nan(ind)  -nan(ind)  -nan(ind)
  WS_CDT180               1.04   -nan(ind)  -nan(ind)  -nan(ind)  -nan(ind)  -nan(ind)  -nan(ind)  -nan(ind)  -nan(ind)  -nan(ind)
  WS_CDT181               8.06   -nan(ind)  -nan(ind)  -nan(ind)  -nan(ind)  -nan(ind)  -nan(ind)  -nan(ind)  -nan(ind)  -nan(ind)
  WS_CDT182               8.31   -nan(ind)  -nan(ind)  -nan(ind)  -nan(ind)  -nan(ind)  -nan(ind)  -nan(ind)  -nan(ind)  -nan(ind)
  WS_CDT183               3.72   -nan(ind)  -nan(ind)  -nan(ind)  -nan(ind)  -nan(ind)  -nan(ind)  -nan(ind)  -nan(ind)  -nan(ind)
  WS_CDT184               1.46   -nan(ind)  -nan(ind)  -nan(ind)  -nan(ind)  -nan(ind)  -nan(ind)  -nan(ind)  -nan(ind)  -nan(ind)
  WS_CDT185               1.14   -nan(ind)  -nan(ind)  -nan(ind)  -nan(ind)  -nan(ind)  -nan(ind)  -nan(ind)  -nan(ind)  -nan(ind)
  WS_CDT186               7.73   -nan(ind)  -nan(ind)  -nan(ind)  -nan(ind)  -nan(ind)  -nan(ind)  -nan(ind)  -nan(ind)  -nan(ind)
  WS_CDT187               7.89   -nan(ind)  -nan(ind)  -nan(ind)  -nan(ind)  -nan(ind)  -nan(ind)  -nan(ind)  -nan(ind)  -nan(ind)
  WS_CDT188               2.32   -nan(ind)  -nan(ind)  -nan(ind)  -nan(ind)  -nan(ind)  -nan(ind)  -nan(ind)  -nan(ind)  -nan(ind)
  WS_CDT189              26.74   -nan(ind)  -nan(ind)  -nan(ind)  -nan(ind)  -nan(ind)  -nan(ind)  -nan(ind)  -nan(ind)  -nan(ind)
  WS_CDT190               8.27   -nan(ind)  -nan(ind)  -nan(ind)  -nan(ind)  -nan(ind)  -nan(ind)  -nan(ind)  -nan(ind)  -nan(ind)
  WS_CDT191               9.37   -nan(ind)  -nan(ind)  -nan(ind)  -nan(ind)  -nan(ind)  -nan(ind)  -nan(ind)  -nan(ind)  -nan(ind)
  WS_CDT192               3.15   -nan(ind)  -nan(ind)  -nan(ind)  -nan(ind)  -nan(ind)  -nan(ind)  -nan(ind)  -nan(ind)  -nan(ind)
  WS_CDT193               3.06   -nan(ind)  -nan(ind)  -nan(ind)  -nan(ind)  -nan(ind)  -nan(ind)  -nan(ind)  -nan(ind)  -nan(ind)
  WS_CDT194               1.00   -nan(ind)  -nan(ind)  -nan(ind)  -nan(ind)  -nan(ind)  -nan(ind)  -nan(ind)  -nan(ind)  -nan(ind)
  WS_CDT196               1.00   -nan(ind)  -nan(ind)  -nan(ind)  -nan(ind)  -nan(ind)  -nan(ind)  -nan(ind)  -nan(ind)  -nan(ind)
  WS_CDT197               5.57   -nan(ind)  -nan(ind)  -nan(ind)  -nan(ind)  -nan(ind)  -nan(ind)  -nan(ind)  -nan(ind)  -nan(ind)
  WS_CDT198               1.00   -nan(ind)  -nan(ind)  -nan(ind)  -nan(ind)  -nan(ind)  -nan(ind)  -nan(ind)  -nan(ind)  -nan(ind)
  WS_CDT199               1.00   -nan(ind)  -nan(ind)  -nan(ind)  -nan(ind)  -nan(ind)  -nan(ind)  -nan(ind)  -nan(ind)  -nan(ind)
  WS_CDT200               1.00   -nan(ind)  -nan(ind)  -nan(ind)  -nan(ind)  -nan(ind)  -nan(ind)  -nan(ind)  -nan(ind)  -nan(ind)
  WS_CDT201               1.00   -nan(ind)  -nan(ind)  -nan(ind)  -nan(ind)  -nan(ind)  -nan(ind)  -nan(ind)  -nan(ind)  -nan(ind)
  WS_CDT204               1.00   -nan(ind)  -nan(ind)  -nan(ind)  -nan(ind)  -nan(ind)  -nan(ind)  -nan(ind)  -nan(ind)  -nan(ind)
  WS_CDT208               1.00   -nan(ind)  -nan(ind)  -nan(ind)  -nan(ind)  -nan(ind)  -nan(ind)  -nan(ind)  -nan(ind)  -nan(ind)
  WS_CDT209               1.00   -nan(ind)  -nan(ind)  -nan(ind)  -nan(ind)  -nan(ind)  -nan(ind)  -nan(ind)  -nan(ind)  -nan(ind)
  WS_CDT210               1.00   -nan(ind)  -nan(ind)  -nan(ind)  -nan(ind)  -nan(ind)  -nan(ind)  -nan(ind)  -nan(ind)  -nan(ind)
  WS_CDT211               1.00   -nan(ind)  -nan(ind)  -nan(ind)  -nan(ind)  -nan(ind)  -nan(ind)  -nan(ind)  -nan(ind)  -nan(ind)
  WS_CDT212               1.43   -nan(ind)  -nan(ind)  -nan(ind)  -nan(ind)  -nan(ind)  -nan(ind)  -nan(ind)  -nan(ind)  -nan(ind)
  WS_CDT213               1.00   -nan(ind)  -nan(ind)  -nan(ind)  -nan(ind)  -nan(ind)  -nan(ind)  -nan(ind)  -nan(ind)  -nan(ind)
  WS_CDT214               1.48   -nan(ind)  -nan(ind)  -nan(ind)  -nan(ind)  -nan(ind)  -nan(ind)  -nan(ind)  -nan(ind)  -nan(ind)
  WS_CDT215               1.00   -nan(ind)  -nan(ind)  -nan(ind)  -nan(ind)  -nan(ind)  -nan(ind)  -nan(ind)  -nan(ind)  -nan(ind)
  WS_CDT216               1.19   -nan(ind)  -nan(ind)  -nan(ind)  -nan(ind)  -nan(ind)  -nan(ind)  -nan(ind)  -nan(ind)  -nan(ind)
  WS_CDT217               1.00   -nan(ind)  -nan(ind)  -nan(ind)  -nan(ind)  -nan(ind)  -nan(ind)  -nan(ind)  -nan(ind)  -nan(ind)
  WS_CDT218               1.00   -nan(ind)  -nan(ind)  -nan(ind)  -nan(ind)  -nan(ind)  -nan(ind)  -nan(ind)  -nan(ind)  -nan(ind)
  WS_CDT219               1.00   -nan(ind)  -nan(ind)  -nan(ind)  -nan(ind)  -nan(ind)  -nan(ind)  -nan(ind)  -nan(ind)  -nan(ind)
  WS_CDT222               1.00   -nan(ind)  -nan(ind)  -nan(ind)  -nan(ind)  -nan(ind)  -nan(ind)  -nan(ind)  -nan(ind)  -nan(ind)
  WS_CDT223               1.00   -nan(ind)  -nan(ind)  -nan(ind)  -nan(ind)  -nan(ind)  -nan(ind)  -nan(ind)  -nan(ind)  -nan(ind)
  WS_CDT224               1.00   -nan(ind)  -nan(ind)  -nan(ind)  -nan(ind)  -nan(ind)  -nan(ind)  -nan(ind)  -nan(ind)  -nan(ind)
  WS_CDT225               1.00   -nan(ind)  -nan(ind)  -nan(ind)  -nan(ind)  -nan(ind)  -nan(ind)  -nan(ind)  -nan(ind)  -nan(ind)
  WS_CDT226               2.82   -nan(ind)  -nan(ind)  -nan(ind)  -nan(ind)  -nan(ind)  -nan(ind)  -nan(ind)  -nan(ind)  -nan(ind)
  WS_CDT227               1.00   -nan(ind)  -nan(ind)  -nan(ind)  -nan(ind)  -nan(ind)  -nan(ind)  -nan(ind)  -nan(ind)  -nan(ind)
  WS_CDT228               2.01   -nan(ind)  -nan(ind)  -nan(ind)  -nan(ind)  -nan(ind)  -nan(ind)  -nan(ind)  -nan(ind)  -nan(ind)
  WS_CDT230               1.00   -nan(ind)  -nan(ind)  -nan(ind)  -nan(ind)  -nan(ind)  -nan(ind)  -nan(ind)  -nan(ind)  -nan(ind)
  WS_CDT231               1.00   -nan(ind)  -nan(ind)  -nan(ind)  -nan(ind)  -nan(ind)  -nan(ind)  -nan(ind)  -nan(ind)  -nan(ind)
  WS_CDT233               1.00   -nan(ind)  -nan(ind)  -nan(ind)  -nan(ind)  -nan(ind)  -nan(ind)  -nan(ind)  -nan(ind)  -nan(ind)
  WS_CDT234               1.00   -nan(ind)  -nan(ind)  -nan(ind)  -nan(ind)  -nan(ind)  -nan(ind)  -nan(ind)  -nan(ind)  -nan(ind)
  WS_CDT235               1.96   -nan(ind)  -nan(ind)  -nan(ind)  -nan(ind)  -nan(ind)  -nan(ind)  -nan(ind)  -nan(ind)  -nan(ind)
  WS_CDT236               1.00   -nan(ind)  -nan(ind)  -nan(ind)  -nan(ind)  -nan(ind)  -nan(ind)  -nan(ind)  -nan(ind)  -nan(ind)
  WS_CDT237               1.00   -nan(ind)  -nan(ind)  -nan(ind)  -nan(ind)  -nan(ind)  -nan(ind)  -nan(ind)  -nan(ind)  -nan(ind)
  WS_CDT241               1.00   -nan(ind)  -nan(ind)  -nan(ind)  -nan(ind)  -nan(ind)  -nan(ind)  -nan(ind)  -nan(ind)  -nan(ind)
  WS_CDT242              10.63   -nan(ind)  -nan(ind)  -nan(ind)  -nan(ind)  -nan(ind)  -nan(ind)  -nan(ind)  -nan(ind)  -nan(ind)
  WS_CDT243               1.77   -nan(ind)  -nan(ind)  -nan(ind)  -nan(ind)  -nan(ind)  -nan(ind)  -nan(ind)  -nan(ind)  -nan(ind)
  WS_CDT246               1.00   -nan(ind)  -nan(ind)  -nan(ind)  -nan(ind)  -nan(ind)  -nan(ind)  -nan(ind)  -nan(ind)  -nan(ind)
  WS_CDT247               2.17   -nan(ind)  -nan(ind)  -nan(ind)  -nan(ind)  -nan(ind)  -nan(ind)  -nan(ind)  -nan(ind)  -nan(ind)
  WS_CDT248               2.26   -nan(ind)  -nan(ind)  -nan(ind)  -nan(ind)  -nan(ind)  -nan(ind)  -nan(ind)  -nan(ind)  -nan(ind)
  WS_CDT249               2.40   -nan(ind)  -nan(ind)  -nan(ind)  -nan(ind)  -nan(ind)  -nan(ind)  -nan(ind)  -nan(ind)  -nan(ind)
  WS_CDT250               2.28   -nan(ind)  -nan(ind)  -nan(ind)  -nan(ind)  -nan(ind)  -nan(ind)  -nan(ind)  -nan(ind)  -nan(ind)
  WS_CDT251               2.34   -nan(ind)  -nan(ind)  -nan(ind)  -nan(ind)  -nan(ind)  -nan(ind)  -nan(ind)  -nan(ind)  -nan(ind)
  WS_CDT252               2.31   -nan(ind)  -nan(ind)  -nan(ind)  -nan(ind)  -nan(ind)  -nan(ind)  -nan(ind)  -nan(ind)  -nan(ind)
  WS_CDT253               2.54   -nan(ind)  -nan(ind)  -nan(ind)  -nan(ind)  -nan(ind)  -nan(ind)  -nan(ind)  -nan(ind)  -nan(ind)
  WS_CDT254               2.45   -nan(ind)  -nan(ind)  -nan(ind)  -nan(ind)  -nan(ind)  -nan(ind)  -nan(ind)  -nan(ind)  -nan(ind)
  WS_CDT255               2.52   -nan(ind)  -nan(ind)  -nan(ind)  -nan(ind)  -nan(ind)  -nan(ind)  -nan(ind)  -nan(ind)  -nan(ind)
  WS_CDT256               1.00   -nan(ind)  -nan(ind)  -nan(ind)  -nan(ind)  -nan(ind)  -nan(ind)  -nan(ind)  -nan(ind)  -nan(ind)
  WS_CDT257               1.49   -nan(ind)  -nan(ind)  -nan(ind)  -nan(ind)  -nan(ind)  -nan(ind)  -nan(ind)  -nan(ind)  -nan(ind)
  WS_CDT258               1.48   -nan(ind)  -nan(ind)  -nan(ind)  -nan(ind)  -nan(ind)  -nan(ind)  -nan(ind)  -nan(ind)  -nan(ind)
  WS_CDT264               2.18   -nan(ind)  -nan(ind)  -nan(ind)  -nan(ind)  -nan(ind)  -nan(ind)  -nan(ind)  -nan(ind)  -nan(ind)
  WS_CDT265               2.78   -nan(ind)  -nan(ind)  -nan(ind)  -nan(ind)  -nan(ind)  -nan(ind)  -nan(ind)  -nan(ind)  -nan(ind)
  WS_CDT266               2.31   -nan(ind)  -nan(ind)  -nan(ind)  -nan(ind)  -nan(ind)  -nan(ind)  -nan(ind)  -nan(ind)  -nan(ind)
  WS_CDT268               1.00   -nan(ind)  -nan(ind)  -nan(ind)  -nan(ind)  -nan(ind)  -nan(ind)  -nan(ind)  -nan(ind)  -nan(ind)
  WS_CDT270              14.13   -nan(ind)  -nan(ind)  -nan(ind)  -nan(ind)  -nan(ind)  -nan(ind)  -nan(ind)  -nan(ind)  -nan(ind)
  WS_CDT271               5.05   -nan(ind)  -nan(ind)  -nan(ind)  -nan(ind)  -nan(ind)  -nan(ind)  -nan(ind)  -nan(ind)  -nan(ind)
  WS_CDT272               1.00   -nan(ind)  -nan(ind)  -nan(ind)  -nan(ind)  -nan(ind)  -nan(ind)  -nan(ind)  -nan(ind)  -nan(ind)
  WS_CDT275               2.69   -nan(ind)  -nan(ind)  -nan(ind)  -nan(ind)  -nan(ind)  -nan(ind)  -nan(ind)  -nan(ind)  -nan(ind)
  WS_CDT276               4.29   -nan(ind)  -nan(ind)  -nan(ind)  -nan(ind)  -nan(ind)  -nan(ind)  -nan(ind)  -nan(ind)  -nan(ind)
  WS_CDT277               1.14   -nan(ind)  -nan(ind)  -nan(ind)  -nan(ind)  -nan(ind)  -nan(ind)  -nan(ind)  -nan(ind)  -nan(ind)
  WS_CDT281               1.05   -nan(ind)  -nan(ind)  -nan(ind)  -nan(ind)  -nan(ind)  -nan(ind)  -nan(ind)  -nan(ind)  -nan(ind)
  WS_CDT282               1.00   -nan(ind)  -nan(ind)  -nan(ind)  -nan(ind)  -nan(ind)  -nan(ind)  -nan(ind)  -nan(ind)  -nan(ind)
  WS_CDT283               1.00   -nan(ind)  -nan(ind)  -nan(ind)  -nan(ind)  -nan(ind)  -nan(ind)  -nan(ind)  -nan(ind)  -nan(ind)
  WS_CDT284               1.00   -nan(ind)  -nan(ind)  -nan(ind)  -nan(ind)  -nan(ind)  -nan(ind)  -nan(ind)  -nan(ind)  -nan(ind)
  WS_CDT285               1.00   -nan(ind)  -nan(ind)  -nan(ind)  -nan(ind)  -nan(ind)  -nan(ind)  -nan(ind)  -nan(ind)  -nan(ind)
  WS_CDT286               1.00   -nan(ind)  -nan(ind)  -nan(ind)  -nan(ind)  -nan(ind)  -nan(ind)  -nan(ind)  -nan(ind)  -nan(ind)
  WS_CDT287               1.00   -nan(ind)  -nan(ind)  -nan(ind)  -nan(ind)  -nan(ind)  -nan(ind)  -nan(ind)  -nan(ind)  -nan(ind)
  WS_CDT288               1.00   -nan(ind)  -nan(ind)  -nan(ind)  -nan(ind)  -nan(ind)  -nan(ind)  -nan(ind)  -nan(ind)  -nan(ind)
  WS_CDT289               1.22   -nan(ind)  -nan(ind)  -nan(ind)  -nan(ind)  -nan(ind)  -nan(ind)  -nan(ind)  -nan(ind)  -nan(ind)
  WS_CDT290               1.00   -nan(ind)  -nan(ind)  -nan(ind)  -nan(ind)  -nan(ind)  -nan(ind)  -nan(ind)  -nan(ind)  -nan(ind)
  WS_CDT291               1.00   -nan(ind)  -nan(ind)  -nan(ind)  -nan(ind)  -nan(ind)  -nan(ind)  -nan(ind)  -nan(ind)  -nan(ind)
  WS_CDT292               1.00   -nan(ind)  -nan(ind)  -nan(ind)  -nan(ind)  -nan(ind)  -nan(ind)  -nan(ind)  -nan(ind)  -nan(ind)
  WS_CDT302               1.03   -nan(ind)  -nan(ind)  -nan(ind)  -nan(ind)  -nan(ind)  -nan(ind)  -nan(ind)  -nan(ind)  -nan(ind)
  WS_CDT306               1.00   -nan(ind)  -nan(ind)  -nan(ind)  -nan(ind)  -nan(ind)  -nan(ind)  -nan(ind)  -nan(ind)  -nan(ind)
  WS_CDT309               1.00   -nan(ind)  -nan(ind)  -nan(ind)  -nan(ind)  -nan(ind)  -nan(ind)  -nan(ind)  -nan(ind)  -nan(ind)
  WS_CDT315               1.00   -nan(ind)  -nan(ind)  -nan(ind)  -nan(ind)  -nan(ind)  -nan(ind)  -nan(ind)  -nan(ind)  -nan(ind)
  WS_CDT316               1.00   -nan(ind)  -nan(ind)  -nan(ind)  -nan(ind)  -nan(ind)  -nan(ind)  -nan(ind)  -nan(ind)  -nan(ind)
  WS_CDT323               1.00   -nan(ind)  -nan(ind)  -nan(ind)  -nan(ind)  -nan(ind)  -nan(ind)  -nan(ind)  -nan(ind)  -nan(ind)
  WS_CDT327               4.44   -nan(ind)  -nan(ind)  -nan(ind)  -nan(ind)  -nan(ind)  -nan(ind)  -nan(ind)  -nan(ind)  -nan(ind)
  WS_CDT328               2.02   -nan(ind)  -nan(ind)  -nan(ind)  -nan(ind)  -nan(ind)  -nan(ind)  -nan(ind)  -nan(ind)  -nan(ind)
  WS_CDT329               1.00   -nan(ind)  -nan(ind)  -nan(ind)  -nan(ind)  -nan(ind)  -nan(ind)  -nan(ind)  -nan(ind)  -nan(ind)
  WS_CDT330               3.82   -nan(ind)  -nan(ind)  -nan(ind)  -nan(ind)  -nan(ind)  -nan(ind)  -nan(ind)  -nan(ind)  -nan(ind)
  WS_CDT331               1.00   -nan(ind)  -nan(ind)  -nan(ind)  -nan(ind)  -nan(ind)  -nan(ind)  -nan(ind)  -nan(ind)  -nan(ind)
  WS_CDT332               1.00   -nan(ind)  -nan(ind)  -nan(ind)  -nan(ind)  -nan(ind)  -nan(ind)  -nan(ind)  -nan(ind)  -nan(ind)
  WS_CDT333               1.00   -nan(ind)  -nan(ind)  -nan(ind)  -nan(ind)  -nan(ind)  -nan(ind)  -nan(ind)  -nan(ind)  -nan(ind)
  WS_CDT334               1.00   -nan(ind)  -nan(ind)  -nan(ind)  -nan(ind)  -nan(ind)  -nan(ind)  -nan(ind)  -nan(ind)  -nan(ind)
  WS_CDT337               1.00   -nan(ind)  -nan(ind)  -nan(ind)  -nan(ind)  -nan(ind)  -nan(ind)  -nan(ind)  -nan(ind)  -nan(ind)
  WS_CDT338               1.63   -nan(ind)  -nan(ind)  -nan(ind)  -nan(ind)  -nan(ind)  -nan(ind)  -nan(ind)  -nan(ind)  -nan(ind)
  WS_CDT339               1.00   -nan(ind)  -nan(ind)  -nan(ind)  -nan(ind)  -nan(ind)  -nan(ind)  -nan(ind)  -nan(ind)  -nan(ind)
  WS_CDT340               1.00   -nan(ind)  -nan(ind)  -nan(ind)  -nan(ind)  -nan(ind)  -nan(ind)  -nan(ind)  -nan(ind)  -nan(ind)
  WS_CDT341               3.81   -nan(ind)  -nan(ind)  -nan(ind)  -nan(ind)  -nan(ind)  -nan(ind)  -nan(ind)  -nan(ind)  -nan(ind)
  WS_CDT342               4.77   -nan(ind)  -nan(ind)  -nan(ind)  -nan(ind)  -nan(ind)  -nan(ind)  -nan(ind)  -nan(ind)  -nan(ind)
  WS_CDT343               4.24   -nan(ind)  -nan(ind)  -nan(ind)  -nan(ind)  -nan(ind)  -nan(ind)  -nan(ind)  -nan(ind)  -nan(ind)
  WS_CDT344               3.06   -nan(ind)  -nan(ind)  -nan(ind)  -nan(ind)  -nan(ind)  -nan(ind)  -nan(ind)  -nan(ind)  -nan(ind)
  WS_CDT345               2.32   -nan(ind)  -nan(ind)  -nan(ind)  -nan(ind)  -nan(ind)  -nan(ind)  -nan(ind)  -nan(ind)  -nan(ind)
  WS_CDT346               1.00   -nan(ind)  -nan(ind)  -nan(ind)  -nan(ind)  -nan(ind)  -nan(ind)  -nan(ind)  -nan(ind)  -nan(ind)
  WS_CDT347               3.07   -nan(ind)  -nan(ind)  -nan(ind)  -nan(ind)  -nan(ind)  -nan(ind)  -nan(ind)  -nan(ind)  -nan(ind)
  WS_CDT348               1.00   -nan(ind)  -nan(ind)  -nan(ind)  -nan(ind)  -nan(ind)  -nan(ind)  -nan(ind)  -nan(ind)  -nan(ind)
  WS_CDT349               1.00   -nan(ind)  -nan(ind)  -nan(ind)  -nan(ind)  -nan(ind)  -nan(ind)  -nan(ind)  -nan(ind)  -nan(ind)
  WS_CDT350               1.00   -nan(ind)  -nan(ind)  -nan(ind)  -nan(ind)  -nan(ind)  -nan(ind)  -nan(ind)  -nan(ind)  -nan(ind)
  WS_CDT380               1.00   -nan(ind)  -nan(ind)  -nan(ind)  -nan(ind)  -nan(ind)  -nan(ind)  -nan(ind)  -nan(ind)  -nan(ind)
  WS_CDT381               1.00   -nan(ind)  -nan(ind)  -nan(ind)  -nan(ind)  -nan(ind)  -nan(ind)  -nan(ind)  -nan(ind)  -nan(ind)
  WS_CDT382               7.35   -nan(ind)  -nan(ind)  -nan(ind)  -nan(ind)  -nan(ind)  -nan(ind)  -nan(ind)  -nan(ind)  -nan(ind)
  WS_CDT383               5.37   -nan(ind)  -nan(ind)  -nan(ind)  -nan(ind)  -nan(ind)  -nan(ind)  -nan(ind)  -nan(ind)  -nan(ind)
  WS_CDT384               3.82   -nan(ind)  -nan(ind)  -nan(ind)  -nan(ind)  -nan(ind)  -nan(ind)  -nan(ind)  -nan(ind)  -nan(ind)
  WS_CDT385               2.13   -nan(ind)  -nan(ind)  -nan(ind)  -nan(ind)  -nan(ind)  -nan(ind)  -nan(ind)  -nan(ind)  -nan(ind)
  WS_CDT386               2.37   -nan(ind)  -nan(ind)  -nan(ind)  -nan(ind)  -nan(ind)  -nan(ind)  -nan(ind)  -nan(ind)  -nan(ind)
  WS_CDT387               1.52   -nan(ind)  -nan(ind)  -nan(ind)  -nan(ind)  -nan(ind)  -nan(ind)  -nan(ind)  -nan(ind)  -nan(ind)
  WS_CDT388               5.78   -nan(ind)  -nan(ind)  -nan(ind)  -nan(ind)  -nan(ind)  -nan(ind)  -nan(ind)  -nan(ind)  -nan(ind)
  WS_CDT390               1.00   -nan(ind)  -nan(ind)  -nan(ind)  -nan(ind)  -nan(ind)  -nan(ind)  -nan(ind)  -nan(ind)  -nan(ind)
  WS_CDT391               1.00   -nan(ind)  -nan(ind)  -nan(ind)  -nan(ind)  -nan(ind)  -nan(ind)  -nan(ind)  -nan(ind)  -nan(ind)
  WS_CDT392               1.08   -nan(ind)  -nan(ind)  -nan(ind)  -nan(ind)  -nan(ind)  -nan(ind)  -nan(ind)  -nan(ind)  -nan(ind)
  WS_CDT393               1.00   -nan(ind)  -nan(ind)  -nan(ind)  -nan(ind)  -nan(ind)  -nan(ind)  -nan(ind)  -nan(ind)  -nan(ind)
  WS_CDT394               1.42   -nan(ind)  -nan(ind)  -nan(ind)  -nan(ind)  -nan(ind)  -nan(ind)  -nan(ind)  -nan(ind)  -nan(ind)
  WS_CDT398               2.59   -nan(ind)  -nan(ind)  -nan(ind)  -nan(ind)  -nan(ind)  -nan(ind)  -nan(ind)  -nan(ind)  -nan(ind)
  WS_CDT400               3.19   -nan(ind)  -nan(ind)  -nan(ind)  -nan(ind)  -nan(ind)  -nan(ind)  -nan(ind)  -nan(ind)  -nan(ind)
  WS_CDT402               2.88   -nan(ind)  -nan(ind)  -nan(ind)  -nan(ind)  -nan(ind)  -nan(ind)  -nan(ind)  -nan(ind)  -nan(ind)
  
  
  *************************
  Conduit Surcharge Summary
  *************************
  
  No conduits were surcharged.
  

  Analysis begun on:  Sat Nov 30 08:11:08 2019
  Analysis ended on:  Sat Nov 30 08:11:08 2019
  Total elapsed time: < 1 sec