
  EPA STORM WATER MANAGEMENT MODEL - VERSION 5.1 (Build 5.1.013)
  --------------------------------------------------------------

  
  ERROR 207: duplicate ID name DEVLIN at line 62 of [JUNC] section:
  DEVLIN MH - 10	28.030000	8.160000	0.000000	0.000000	0.000000

  
  ERROR 207: duplicate ID name DEVLIN at line 63 of [JUNC] section:
  DEVLIN MH - 11	27.430000	11.340000	0.000000	0.000000	0.000000

  
  ERROR 207: duplicate ID name DEVLIN at line 64 of [JUNC] section:
  DEVLIN MH - 12	26.990000	13.030000	0.000000	0.000000	0.000000

  
  ERROR 207: duplicate ID name DEVLIN at line 65 of [JUNC] section:
  DEVLIN MH - 13	8.440000	29.570000	0.000000	0.000000	0.000000

  
  ERROR 207: duplicate ID name DEVLIN at line 66 of [JUNC] section:
  DEVLIN MH - 14	4.780000	30.520000	0.000000	0.000000	0.000000

  
  ERROR 207: duplicate ID name DEVLIN at line 67 of [JUNC] section:
  DEVLIN MH - 15	8.440000	27.860000	0.000000	0.000000	0.000000

  
  ERROR 207: duplicate ID name DEVLIN at line 68 of [JUNC] section:
  DEVLIN MH - 16	8.210000	27.090000	0.000000	0.000000	0.000000

  
  ERROR 207: duplicate ID name DEVLIN at line 69 of [JUNC] section:
  DEVLIN MH - 17	7.990000	27.310000	0.000000	0.000000	0.000000

  
  ERROR 207: duplicate ID name DEVLIN at line 70 of [JUNC] section:
  DEVLIN MH - 18	7.770000	27.530000	0.000000	0.000000	0.000000

  
  ERROR 207: duplicate ID name DEVLIN at line 71 of [JUNC] section:
  DEVLIN MH - 19	7.210000	29.090000	0.000000	0.000000	0.000000

  
  ERROR 207: duplicate ID name DEVLIN at line 72 of [JUNC] section:
  DEVLIN MH - 2	32.920000	8.000000	0.000000	0.000000	0.000000

  
  ERROR 207: duplicate ID name DEVLIN at line 73 of [JUNC] section:
  DEVLIN MH - 20	6.660000	29.640000	0.000000	0.000000	0.000000

  
  ERROR 207: duplicate ID name DEVLIN at line 74 of [JUNC] section:
  DEVLIN MH - 21	6.280000	29.020000	0.000000	0.000000	0.000000

  
  ERROR 207: duplicate ID name DEVLIN at line 75 of [JUNC] section:
  DEVLIN MH - 22	5.960000	28.740000	0.000000	0.000000	0.000000

  
  ERROR 207: duplicate ID name DEVLIN at line 76 of [JUNC] section:
  DEVLIN MH - 23	5.180000	28.120000	0.000000	0.000000	0.000000

  
  ERROR 207: duplicate ID name DEVLIN at line 77 of [JUNC] section:
  DEVLIN MH - 24	5.640000	28.460000	0.000000	0.000000	0.000000

  
  ERROR 207: duplicate ID name DEVLIN at line 78 of [JUNC] section:
  DEVLIN MH - 3	32.120000	8.500000	0.000000	0.000000	0.000000

  
  ERROR 207: duplicate ID name DEVLIN at line 79 of [JUNC] section:
  DEVLIN MH - 4	31.740000	10.260000	0.000000	0.000000	0.000000

  
  ERROR 207: duplicate ID name DEVLIN at line 80 of [JUNC] section:
  DEVLIN MH - 5	30.930000	8.620000	0.000000	0.000000	0.000000

  
  ERROR 207: duplicate ID name DEVLIN at line 81 of [JUNC] section:
  DEVLIN MH - 6	30.330000	9.210000	0.000000	0.000000	0.000000

  
  ERROR 207: duplicate ID name DEVLIN at line 82 of [JUNC] section:
  DEVLIN MH - 7	29.730000	6.620000	0.000000	0.000000	0.000000

  
  ERROR 207: duplicate ID name DEVLIN at line 83 of [JUNC] section:
  DEVLIN MH - 8	29.170000	7.230000	0.000000	0.000000	0.000000

  
  ERROR 207: duplicate ID name DEVLIN at line 84 of [JUNC] section:
  DEVLIN MH - 9	28.590000	7.640000	0.000000	0.000000	0.000000

  
  ERROR 207: duplicate ID name DEVLIN at line 583 of [CONDUIT] section:
  DEVLIN - 10	DEVLIN MH - 9	DEVLIN MH - 10	283.530999	0.013000	0.000000	0.000000	0.000000	0.000000

  
  ERROR 207: duplicate ID name DEVLIN at line 584 of [CONDUIT] section:
  DEVLIN - 11	DEVLIN MH - 10	DEVLIN MH - 11	298.493206	0.013000	0.000000	0.000000	0.000000	0.000000

  
  ERROR 207: duplicate ID name DEVLIN at line 585 of [CONDUIT] section:
  DEVLIN - 12	DEVLIN MH - 11	DEVLIN MH - 12	218.206290	0.013000	0.000000	0.000000	0.000000	0.000000

  
  ERROR 207: duplicate ID name DEVLIN at line 586 of [CONDUIT] section:
  DEVLIN - 13	DEVLIN MH - 12	DEVLIN MH - 13	80.824383	0.013000	0.000000	0.360000	0.000000	0.000000

  
  ERROR 207: duplicate ID name DEVLIN at line 587 of [CONDUIT] section:
  DEVLIN - 14	DEVLIN MH - 15	DEVLIN MH - 16	245.719920	0.013000	0.000000	0.000000	0.000000	0.000000

  
  ERROR 207: duplicate ID name DEVLIN at line 588 of [CONDUIT] section:
  DEVLIN - 15	DEVLIN MH - 16	DEVLIN MH - 17	242.095492	0.013000	0.000000	0.000000	0.000000	0.000000

  
  ERROR 207: duplicate ID name DEVLIN at line 589 of [CONDUIT] section:
  DEVLIN - 16	DEVLIN MH - 17	DEVLIN MH - 18	244.740641	0.013000	0.000000	0.000000	0.000000	0.000000

  
  ERROR 207: duplicate ID name DEVLIN at line 590 of [CONDUIT] section:
  DEVLIN - 17	DEVLIN MH - 18	DEVLIN MH - 19	599.144156	0.013000	0.000000	0.000000	0.000000	0.000000

  
  ERROR 207: duplicate ID name DEVLIN at line 591 of [CONDUIT] section:
  DEVLIN - 18	DEVLIN MH - 19	DEVLIN MH - 20	599.088968	0.013000	0.000000	0.000000	0.000000	0.000000

  
  ERROR 207: duplicate ID name DEVLIN at line 592 of [CONDUIT] section:
  DEVLIN - 19	DEVLIN MH - 20	DEVLIN MH - 21	412.400377	0.013000	0.000000	0.000000	0.000000	0.000000

  
  ERROR 207: duplicate ID name DEVLIN at line 593 of [CONDUIT] section:
  DEVLIN - 2	DEVLIN MH - 1	DEVLIN MH - 2	755.572602	0.013000	34.430000	0.000000	0.000000	0.000000

  
  ERROR 207: duplicate ID name DEVLIN at line 594 of [CONDUIT] section:
  DEVLIN - 20	DEVLIN MH - 21	DEVLIN MH - 22	349.719456	0.013000	0.000000	0.000000	0.000000	0.000000

  
  ERROR 207: duplicate ID name DEVLIN at line 595 of [CONDUIT] section:
  DEVLIN - 21	DEVLIN MH - 24	DEVLIN MH - 23	495.489301	0.013000	0.000000	0.000000	0.000000	0.000000

  
  ERROR 207: duplicate ID name DEVLIN at line 596 of [CONDUIT] section:
  DEVLIN - 22	DEVLIN MH - 23	DEVLIN MH - 14	435.083025	0.013000	0.000000	0.000000	0.000000	0.000000

  
  ERROR 207: duplicate ID name DEVLIN at line 597 of [CONDUIT] section:
  DEVLIN - 23	PS-182	DEVLIN MH - 1	69.946588	0.010000	0.000000	0.000000	0.000000	0.000000

  
  ERROR 207: duplicate ID name DEVLIN at line 598 of [CONDUIT] section:
  DEVLIN - 24	DEVLIN MH - 14	MH-108	159.579224	0.013000	0.000000	0.000000	0.000000	0.000000

  
  ERROR 207: duplicate ID name DEVLIN at line 599 of [CONDUIT] section:
  DEVLIN - 25	DEVLIN MH - 15	DEVLIN MH - 13	391.550740	0.013000	0.360000	0.000000	0.000000	0.000000

  
  ERROR 207: duplicate ID name DEVLIN at line 600 of [CONDUIT] section:
  DEVLIN - 26	DEVLIN MH - 22	DEVLIN MH - 24	354.610636	0.013000	0.000000	0.000000	0.000000	0.000000

  
  ERROR 207: duplicate ID name DEVLIN at line 601 of [CONDUIT] section:
  DEVLIN - 3	DEVLIN MH - 2	DEVLIN MH - 3	396.681106	0.013000	0.000000	0.000000	0.000000	0.000000

  
  ERROR 207: duplicate ID name DEVLIN at line 602 of [CONDUIT] section:
  DEVLIN - 4	DEVLIN MH - 3	DEVLIN MH - 4	191.728755	0.013000	0.000000	0.000000	0.000000	0.000000

  
  ERROR 207: duplicate ID name DEVLIN at line 603 of [CONDUIT] section:
  DEVLIN - 5	DEVLIN MH - 4	DEVLIN MH - 5	403.983546	0.013000	0.000000	0.000000	0.000000	0.000000

  
  ERROR 207: duplicate ID name DEVLIN at line 604 of [CONDUIT] section:
  DEVLIN - 6	DEVLIN MH - 5	DEVLIN MH - 6	301.277126	0.013000	0.000000	0.000000	0.000000	0.000000

  
  ERROR 207: duplicate ID name DEVLIN at line 605 of [CONDUIT] section:
  DEVLIN - 7	DEVLIN MH - 6	DEVLIN MH - 7	298.581087	0.013000	0.000000	0.000000	0.000000	0.000000

  
  ERROR 207: duplicate ID name DEVLIN at line 606 of [CONDUIT] section:
  DEVLIN - 8	DEVLIN MH - 7	DEVLIN MH - 8	282.322202	0.013000	0.000000	0.000000	0.000000	0.000000

  
  ERROR 207: duplicate ID name DEVLIN at line 607 of [CONDUIT] section:
  DEVLIN - 9	DEVLIN MH - 8	DEVLIN MH - 9	286.591170	0.013000	0.000000	0.000000	0.000000	0.000000


  Analysis begun on:  Fri Nov 29 11:07:31 2019
  Analysis ended on:  Fri Nov 29 11:07:31 2019
  Total elapsed time: < 1 sec