
  EPA STORM WATER MANAGEMENT MODEL - VERSION 5.1 (Build 5.1.013)
  --------------------------------------------------------------

  WARNING 02: maximum depth increased for Node 41507
  
  *************
  Element Count
  *************
  Number of rain gages ...... 0
  Number of subcatchments ... 0
  Number of nodes ........... 267
  Number of links ........... 263
  Number of pollutants ...... 0
  Number of land uses ....... 0
  
  
  ************
  Node Summary
  ************
                                           Invert      Max.    Ponded    External
  Name                 Type                 Elev.     Depth      Area    Inflow  
  -------------------------------------------------------------------------------
  39149                JUNCTION            329.57      9.60       0.0    Yes
  39150                JUNCTION            328.64     14.00       0.0
  39151                JUNCTION            327.00     14.00       0.0
  39152                JUNCTION            324.48     13.00       0.0
  39153                JUNCTION            323.35     13.00       0.0
  39154                JUNCTION            322.23     12.00       0.0
  39155                JUNCTION            321.20     11.00       0.0
  39156                JUNCTION            318.20     10.00       0.0    Yes
  39163                JUNCTION            336.19     17.59       0.0
  39164                JUNCTION            335.18     12.95       0.0    Yes
  39166                JUNCTION            334.48     12.67       0.0
  39167                JUNCTION            333.73     13.66       0.0
  39168                JUNCTION            333.36     14.23       0.0    Yes
  39169                JUNCTION            332.59     16.00       0.0
  39170                JUNCTION            371.49      6.00       0.0
  39171                JUNCTION            355.49      7.00       0.0
  39172                JUNCTION            335.66     13.00       0.0
  39173                JUNCTION            330.49     14.00       0.0
  39179                JUNCTION            400.59     11.00       0.0
  39180                JUNCTION            394.89     12.00       0.0
  39181                JUNCTION            393.78     13.00       0.0    Yes
  39188                JUNCTION            369.49     16.17       0.0    Yes
  39189                JUNCTION            363.59      9.00       0.0
  39190                JUNCTION            345.59      8.00       0.0    Yes
  39191                JUNCTION            340.49     11.00       0.0
  39192                JUNCTION            516.35     10.39       0.0
  39193                JUNCTION            490.49     12.10       0.0
  39194                JUNCTION            441.79     18.80       0.0
  39195                JUNCTION            429.49     19.10       0.0
  39203                JUNCTION            399.09      6.50       0.0    Yes
  39204                JUNCTION            392.09      7.50       0.0    Yes
  39206                JUNCTION            372.49      9.10       0.0
  39207                JUNCTION            362.99     10.60       0.0
  39208                JUNCTION            357.59      8.00       0.0
  39213                JUNCTION            344.03     12.15       0.0
  39214                JUNCTION            343.21     16.84       0.0
  39218                JUNCTION            342.62     21.23       0.0
  39224                JUNCTION            340.88     17.24       0.0    Yes
  39225                JUNCTION            339.92     19.05       0.0
  39247                JUNCTION            339.32     19.51       0.0
  39248                JUNCTION            337.92     23.53       0.0
  39249                JUNCTION            336.76     21.51       0.0
  39250                JUNCTION            519.49     11.00       0.0    Yes
  39251                JUNCTION            501.54     16.00       0.0
  39252                JUNCTION            489.09     13.00       0.0
  39253                JUNCTION            481.49     11.00       0.0    Yes
  39254                JUNCTION            471.09      8.00       0.0
  39255                JUNCTION            462.59      8.00       0.0
  39256                JUNCTION            439.17      9.00       0.0
  39257                JUNCTION            437.49      8.00       0.0
  39258                JUNCTION            421.09      5.00       0.0
  39259                JUNCTION            397.49      5.00       0.0    Yes
  39299                JUNCTION            441.65     11.00       0.0
  39300                JUNCTION            433.49      9.00       0.0
  39303                JUNCTION            431.70     10.00       0.0
  39304                JUNCTION            422.32      7.50       0.0
  39305                JUNCTION            419.59     11.00       0.0    Yes
  39306                JUNCTION            416.59      8.00       0.0
  39331                JUNCTION            445.60      7.00       0.0    Yes
  39332                JUNCTION            444.50     11.73       0.0
  39333                JUNCTION            442.90     11.00       0.0
  39405                JUNCTION            543.49     13.10       0.0    Yes
  39406                JUNCTION            517.09     10.00       0.0
  39518                JUNCTION            634.09      9.00       0.0
  39519                JUNCTION            588.59     12.00       0.0    Yes
  39520                JUNCTION            568.99     13.00       0.0    Yes
  39521                JUNCTION            559.09     10.00       0.0
  39522                JUNCTION            535.59     12.00       0.0
  39524                JUNCTION            673.40     12.50       0.0
  39525                JUNCTION            666.70     10.00       0.0    Yes
  39561                JUNCTION            778.09      8.60       0.0
  39562                JUNCTION            770.85      7.74       0.0
  39563                JUNCTION            765.49      8.10       0.0
  39564                JUNCTION            756.49      9.10       0.0
  39565                JUNCTION            736.59     14.00       0.0
  39567                JUNCTION            733.09     13.50       0.0
  39568                JUNCTION            731.49     17.10       0.0    Yes
  39570                JUNCTION            724.49     13.10       0.0
  39571                JUNCTION            716.49     11.10       0.0
  39572                JUNCTION            699.95     13.64       0.0
  39573                JUNCTION            699.03     11.56       0.0
  39574                JUNCTION            692.76     11.78       0.0
  39575                JUNCTION            686.70     13.00       0.0
  39795                JUNCTION            802.70     11.84       0.0    Yes
  39796                JUNCTION            785.43      8.11       0.0
  39797                JUNCTION            781.60      4.94       0.0
  39798                JUNCTION            781.04     11.16       0.0
  39195265             JUNCTION            344.63      9.60       0.0
  39195288             JUNCTION            346.60      5.40       0.0
  39195270             JUNCTION            347.09      6.00       0.0
  39195272             JUNCTION            348.54      5.90       0.0    Yes
  39395                JUNCTION            603.12     14.10       0.0    Yes
  39396                JUNCTION            592.25     13.70       0.0
  39397                JUNCTION            583.96     12.70       0.0
  39398                JUNCTION            562.45     11.25       0.0
  39399                JUNCTION            558.00      9.65       0.0
  39404                JUNCTION            557.25      9.40       0.0
  39390                JUNCTION            544.69     11.30       0.0
  39356                JUNCTION            545.34      8.60       0.0
  39355                JUNCTION            548.75     11.25       0.0
  39354                JUNCTION            581.00     11.20       0.0
  39353                JUNCTION            669.10     12.50       0.0    Yes
  39486                JUNCTION            613.97     11.60       0.0
  39485                JUNCTION            618.53     10.20       0.0    Yes
  39484                JUNCTION            625.28      9.10       0.0
  39480                JUNCTION            634.84     10.20       0.0
  39479                JUNCTION            666.00     18.91       0.0    Yes
  41110                JUNCTION             69.99     12.00       0.0    Yes
  41111                JUNCTION             68.90     13.50       0.0
  41112                JUNCTION             67.98     14.00       0.0
  41113                JUNCTION             67.53     18.60       0.0
  41114                JUNCTION             62.85     15.60       0.0
  41115                JUNCTION             61.09     10.50       0.0
  41116                JUNCTION             58.49     19.40       0.0
  192864               JUNCTION             57.44     12.00       0.0
  196631               JUNCTION             68.49     11.20       0.0
  41120                JUNCTION             73.29     12.50       0.0
  41121                JUNCTION             76.21     15.00       0.0
  41122                JUNCTION             77.01     13.10       0.0    Yes
  41127                JUNCTION             79.13     15.20       0.0
  41128                JUNCTION             83.76     13.40       0.0    Yes
  41129                JUNCTION             88.10     15.30       0.0
  41158                JUNCTION             83.52     13.20       0.0
  41179                JUNCTION             69.78     12.01       0.0    Yes
  196357               JUNCTION             84.09     17.00       0.0    Yes
  41181                JUNCTION             94.19     13.40       0.0
  41182                JUNCTION             99.56      9.03       0.0
  41188                JUNCTION            202.59     11.10       0.0
  41189                JUNCTION            234.52      6.90       0.0    Yes
  41190                JUNCTION            244.09      5.00       0.0
  41191                JUNCTION            247.84     12.05       0.0
  41192                JUNCTION            265.40     17.71       0.0
  41193                JUNCTION            269.40     10.40       0.0    Yes
  41197                JUNCTION            104.59     14.50       0.0
  41198                JUNCTION            122.38     41.00       0.0
  41199                JUNCTION            138.99      7.00       0.0
  41200                JUNCTION            143.21     16.60       0.0    Yes
  41201                JUNCTION            154.31     10.50       0.0
  41202                JUNCTION            160.20     11.10       0.0    Yes
  41203                JUNCTION            171.44      9.00       0.0
  41204                JUNCTION            179.49      8.00       0.0
  41205                JUNCTION            188.49     10.20       0.0
  41206                JUNCTION            200.49     10.90       0.0
  41207                JUNCTION            209.49      7.60       0.0
  41208                JUNCTION            214.59      8.40       0.0
  41209                JUNCTION            233.49     11.00       0.0
  41210                JUNCTION            265.31     15.00       0.0
  4182808              JUNCTION             89.20     18.00       0.0
  41362                JUNCTION             91.89     25.93       0.0    Yes
  41363                JUNCTION             93.19      6.80       0.0    Yes
  41366                JUNCTION             94.96      6.50       0.0
  41367                JUNCTION             97.54      9.50       0.0
  41368                JUNCTION             98.00     14.00       0.0    Yes
  41369                JUNCTION             98.89     12.50       0.0
  41370                JUNCTION             99.09     13.70       0.0
  41371                JUNCTION             99.61     13.30       0.0
  41372                JUNCTION             99.83     13.20       0.0
  41373                JUNCTION            100.26     10.70       0.0    Yes
  41375                JUNCTION            101.81     12.00       0.0    Yes
  41376                JUNCTION            104.72     11.40       0.0
  41377                JUNCTION            108.59     10.70       0.0
  41378                JUNCTION            113.59     18.20       0.0
  41379                JUNCTION            119.59     14.50       0.0    Yes
  41380                JUNCTION            144.39     11.20       0.0
  41381                JUNCTION            175.70     12.87       0.0
  41382                JUNCTION            203.54      8.65       0.0    Yes
  41458                JUNCTION            267.76     12.50       0.0
  41459                JUNCTION            271.65     12.00       0.0
  41460                JUNCTION            275.49      7.60       0.0    Yes
  41461                JUNCTION            279.49     10.50       0.0
  41462                JUNCTION            285.39     14.70       0.0    Yes
  41465                JUNCTION            289.03     12.00       0.0
  41466                JUNCTION            293.01     11.50       0.0
  41467                JUNCTION            298.99     10.50       0.0
  41468                JUNCTION            307.56     15.00       0.0    Yes
  41487                JUNCTION            312.52     11.20       0.0
  41488                JUNCTION            314.59      8.80       0.0    Yes
  41611                JUNCTION            278.07     11.42       0.0    Yes
  4182801              JUNCTION             91.64     32.62       0.0
  4182806              JUNCTION             89.40     23.59       0.0
  4182803              JUNCTION             90.80     29.41       0.0    Yes
  41469                JUNCTION            309.59     14.00       0.0
  41470                JUNCTION            316.59     14.60       0.0
  41471                JUNCTION            317.59     10.80       0.0
  41472                JUNCTION            318.89     11.50       0.0
  41473                JUNCTION            320.90     10.20       0.0
  41474                JUNCTION            323.29      8.00       0.0
  41479                JUNCTION            326.39      8.10       0.0
  41482                JUNCTION            326.69      7.20       0.0
  41483                JUNCTION            327.72     15.00       0.0
  41568                JUNCTION            329.03     26.00       0.0
  41546                JUNCTION            329.38      6.30       0.0
  41547                JUNCTION            330.32      9.00       0.0
  41548                JUNCTION            331.35      6.60       0.0
  41549                JUNCTION            332.33      5.77       0.0
  41550                JUNCTION            333.43      8.00       0.0
  41551                JUNCTION            334.56      9.50       0.0
  41552                JUNCTION            335.34     11.90       0.0
  41555                JUNCTION            336.93     11.60       0.0
  41556                JUNCTION            338.04     12.00       0.0
  41557                JUNCTION            339.38     15.11       0.0
  41558                JUNCTION            340.42      9.00       0.0
  40667                JUNCTION            381.54     11.00       0.0
  40116                JUNCTION            400.54      9.00       0.0    Yes
  40117                JUNCTION            431.54      7.40       0.0
  40118                JUNCTION            450.59      7.80       0.0
  40119                JUNCTION            472.04      6.05       0.0
  40120                JUNCTION            496.54     10.10       0.0    Yes
  40444                JUNCTION            517.54      8.70       0.0
  40443                JUNCTION            547.54      7.30       0.0
  40442                JUNCTION            570.54      9.20       0.0
  40441                JUNCTION            605.54     10.70       0.0
  40440                JUNCTION            643.64      8.10       0.0
  40439                JUNCTION            670.54      9.80       0.0
  40438                JUNCTION            694.54     10.00       0.0
  40437                JUNCTION            723.54     11.00       0.0    Yes
  40108                JUNCTION            378.35     11.60       0.0
  40107                JUNCTION            376.55      8.20       0.0
  40666                JUNCTION            375.71      4.90       0.0
  40105                JUNCTION            374.53      9.00       0.0
  40104                JUNCTION            373.99     22.00       0.0
  40103                JUNCTION            373.61     10.25       0.0    Yes
  40102                JUNCTION            356.59     19.16       0.0
  41506                JUNCTION            314.95     11.02       0.0
  41507                JUNCTION            317.99      8.67       0.0
  41526                JUNCTION            331.87      7.97       0.0
  41530                JUNCTION            351.74      9.40       0.0
  41489                JUNCTION            317.75      9.26       0.0
  41504                JUNCTION            343.59      8.70       0.0
  41503                JUNCTION            347.49      7.90       0.0
  41502                JUNCTION            355.79      7.70       0.0
  41501                JUNCTION            367.34     10.60       0.0
  40666a               JUNCTION            375.71      4.90       0.0
  39195265a            JUNCTION            344.59      9.70       0.0
  39195265b            JUNCTION            343.10      0.67       0.0
  196392               JUNCTION            280.87      1.00       0.0
  196844               JUNCTION            305.99      0.93       0.0
  204523               JUNCTION            288.70      1.10       0.0
  196443               JUNCTION            293.00      1.00       0.0    Yes
  196498               JUNCTION            300.49      0.93       0.0
  192853               JUNCTION            304.25      0.93       0.0
  196835               JUNCTION            312.21      0.83       0.0    Yes
  196827               JUNCTION            313.02      0.93       0.0
  196838               JUNCTION            313.91      1.09       0.0
  196839               JUNCTION            315.61      0.93       0.0    Yes
  196840               JUNCTION            316.43      0.93       0.0    Yes
  307                  JUNCTION            130.18     12.57       0.0
  306                  JUNCTION            142.23      7.83       0.0
  305                  JUNCTION            148.30      6.24       0.0
  304                  JUNCTION            156.90      9.96       0.0
  303                  JUNCTION            177.10      8.19       0.0
  302                  JUNCTION            197.70      7.00       0.0
  301                  JUNCTION            201.30      8.95       0.0
  196629               JUNCTION             57.35     12.00       0.0
  KC_R06-25            JUNCTION             57.10     10.00       0.0
  KC_R06-24            JUNCTION             56.14     16.00       0.0
  KC_R06-23            JUNCTION             55.93     17.00       0.0    Yes
  KC_R06-22A           JUNCTION             55.55     10.00       0.0
  KC_R06-22            JUNCTION             54.90     15.00       0.0
  KC_R06-21A           JUNCTION             53.40      8.00       0.0
  KC_R06-21            JUNCTION             51.90      5.00       0.0
  KC_R06-20A           JUNCTION             51.25      5.00       0.0
  KC_R06-20            JUNCTION             50.60      6.00       0.0
  KC_R06-19A           JUNCTION             46.05      8.00       0.0
  OUTFALL              OUTFALL             311.69      3.04       0.0
  KC_R06-19            OUTFALL              41.50      1.60       0.0
  40101a               OUTFALL             355.49      0.93       0.0
  
  
  ************
  Link Summary
  ************
  Name             From Node        To Node          Type            Length    %Slope Roughness
  ---------------------------------------------------------------------------------------------
  39156            39156            OUTFALL          CONDUIT          455.0    1.2023    0.0130
  39155            39155            39156            CONDUIT          194.0    1.1392    0.0130
  39154            39154            39155            CONDUIT          116.0    0.8880    0.0130
  39153            39153            39154            CONDUIT          116.0    0.8793    0.0130
  39152            39152            39153            CONDUIT          116.0    0.8880    0.0130
  39151            39151            39152            CONDUIT          505.0    0.4792    0.0130
  39150            39150            39151            CONDUIT           95.0    1.7266    0.0130
  39149            39149            39150            CONDUIT          139.0    0.6331    0.0130
  39173            39173            39149            CONDUIT          140.0    0.6572    0.0130
  39169            39169            39173            CONDUIT          300.0    0.6667    0.0130
  39168            39168            39169            CONDUIT          147.0    0.2857    0.0130
  39167            39167            39168            CONDUIT           90.0    0.3000    0.0130
  39166            39166            39167            CONDUIT          178.0    0.3652    0.0130
  39164            39164            39166            CONDUIT          255.0    0.2275    0.0130
  39163            39163            39164            CONDUIT          201.0    0.4527    0.0130
  39249            39249            39163            CONDUIT          123.0    0.4309    0.0130
  39248            39248            39249            CONDUIT          174.0    0.6437    0.0130
  39247            39247            39248            CONDUIT          405.0    0.3358    0.0130
  39225            39225            39247            CONDUIT          140.0    0.2786    0.0130
  39224            39224            39225            CONDUIT          234.0    0.4103    0.0130
  39218            39218            39224            CONDUIT          396.0    0.3838    0.0130
  39214            39214            39218            CONDUIT          126.0    0.3095    0.0130
  39213            39213            39214            CONDUIT          169.0    0.4320    0.0130
  39195265         39195265         39213            CONDUIT           89.0    0.5281    0.0130
  39195288         39195288         39195265         CONDUIT          153.0    1.2223    0.0130
  39195270         39195270         39195288         CONDUIT           77.0    0.5065    0.0130
  39195272         39195272         39195270         CONDUIT          145.0    0.9311    0.0130
  39208            39208            39213            CONDUIT          300.0    4.5146    0.0130
  39207            39207            39208            CONDUIT          220.0    2.4098    0.0130
  39206            39206            39207            CONDUIT          123.0    7.6647    0.0130
  39204            39204            39206            CONDUIT          184.0   10.6578    0.0130
  39203            39203            39204            CONDUIT          179.0    3.8576    0.0130
  39195            39195            39203            CONDUIT          338.0    9.0007    0.0130
  39194            39194            39195            CONDUIT          130.0    9.4262    0.0130
  39193            39193            39194            CONDUIT          218.0   22.8691    0.0130
  39192            39192            39193            CONDUIT          279.0    9.2726    0.0130
  39406            39406            39192            CONDUIT          127.0    0.5039    0.0130
  39405            39405            39406            CONDUIT          278.0    9.4775    0.0130
  39390            39390            39405            CONDUIT          150.0    0.7667    0.0130
  39356            39356            39390            CONDUIT           85.0    0.7647    0.0130
  39355            39355            39356            CONDUIT           77.0    4.3027    0.0130
  39354            39354            39355            CONDUIT          139.0   23.7742    0.0130
  39353            39353            39354            CONDUIT          374.0   24.2091    0.0130
  39404            39404            39405            CONDUIT          174.0    7.7125    0.0130
  39399            39399            39404            CONDUIT            9.0    7.8014    0.0130
  39398            39398            39399            CONDUIT           60.0    7.3531    0.0130
  39397            39397            39398            CONDUIT          400.0    5.3727    0.0130
  39396            39396            39397            CONDUIT          350.0    2.3549    0.0130
  39395            39395            39396            CONDUIT          265.0    4.1053    0.0130
  39486            39486            39395            CONDUIT          275.0    3.9485    0.0130
  39485            39485            39486            CONDUIT           47.0    9.6402    0.0130
  39172            39172            39169            CONDUIT           65.0    4.5740    0.0130
  39171            39171            39172            CONDUIT          292.0    6.6620    0.0130
  39170            39170            39171            CONDUIT          246.0    6.4770    0.0130
  39259            39259            39170            CONDUIT          394.0    6.5879    0.0130
  39258            39258            39259            CONDUIT          403.0    5.8412    0.0130
  39257            39257            39258            CONDUIT          407.0    4.0081    0.0130
  39256            39256            39257            CONDUIT           45.0    3.5133    0.0130
  39255            39255            39256            CONDUIT          412.0    5.6693    0.0130
  39254            39254            39255            CONDUIT          145.0    5.8028    0.0130
  39253            39253            39254            CONDUIT          285.0    3.6164    0.0130
  39252            39252            39253            CONDUIT          159.0    4.6150    0.0130
  39251            39251            39252            CONDUIT          241.0    5.1312    0.0130
  39250            39250            39251            CONDUIT          175.0   10.2535    0.0130
  39522            39522            39250            CONDUIT          147.0   10.9494    0.0130
  39521            39521            39522            CONDUIT          246.0    9.5555    0.0130
  39520            39520            39521            CONDUIT          125.0    7.9450    0.0130
  39519            39519            39520            CONDUIT          329.0    5.9680    0.0130
  39518            39518            39519            CONDUIT          287.0   15.9590    0.0130
  39525            39525            39518            CONDUIT          318.0   10.2228    0.0130
  39524            39524            39525            CONDUIT           97.0    6.4152    0.0130
  39575            39575            39524            CONDUIT          150.0    8.8343    0.0130
  39574            39574            39575            CONDUIT           82.0    7.2876    0.0130
  39573            39573            39574            CONDUIT           74.0    8.3670    0.0130
  39572            39572            39573            CONDUIT          169.0    0.4852    0.0130
  39571            39571            39572            CONDUIT          174.0    9.4907    0.0130
  39570            39570            39571            CONDUIT          157.0    5.0382    0.0130
  39568            39568            39570            CONDUIT          221.0    3.1237    0.0130
  39567            39567            39568            CONDUIT          169.0    0.8876    0.0130
  39565            39565            39567            CONDUIT          158.0    1.8991    0.0130
  39564            39564            39565            CONDUIT          233.0    8.5287    0.0130
  39563            39563            39564            CONDUIT          189.0    4.7142    0.0130
  39562            39562            39563            CONDUIT           92.0    5.7268    0.0130
  39561            39561            39562            CONDUIT          124.0    5.7676    0.0130
  39798            39798            39561            CONDUIT           11.0   26.8251    0.0130
  39797            39797            39798            CONDUIT          116.0    0.3966    0.0130
  39796            39796            39797            CONDUIT          142.0    2.6277    0.0130
  39795            39795            39796            CONDUIT          279.0    6.1658    0.0130
  39191            39191            39172            CONDUIT          168.0    2.8762    0.0130
  39190            39190            39191            CONDUIT          220.0    2.2733    0.0130
  39189            39189            39190            CONDUIT          391.0    4.5828    0.0130
  39188            39188            39189            CONDUIT          205.0    2.8304    0.0130
  39181            39181            39188            CONDUIT          267.0    9.0973    0.0130
  39180            39180            39181            CONDUIT          212.0    0.4764    0.0130
  39179            39179            39180            CONDUIT          175.0    3.2016    0.0130
  39306            39306            39179            CONDUIT          400.0    3.9781    0.0130
  39305            39305            39306            CONDUIT          400.0    0.7250    0.0130
  39304            39304            39305            CONDUIT          399.0    0.6592    0.0130
  39303            39303            39304            CONDUIT          206.0    4.4267    0.0130
  39300            39300            39303            CONDUIT          163.0    0.9939    0.0130
  39299            39299            39300            CONDUIT          214.0    3.7690    0.0130
  39333            39333            39299            CONDUIT          109.0    0.9909    0.0130
  39332            39332            39333            CONDUIT          116.0    1.3277    0.0130
  39331            39331            39332            CONDUIT           74.0    1.0811    0.0130
  39484            39484            39485            CONDUIT           69.0    9.6828    0.0130
  39480            39480            39484            CONDUIT          207.0    4.5748    0.0130
  39479            39479            39480            CONDUIT          371.0    8.4015    0.0130
  39436089a        39195265b        41558            CONDUIT          101.0    1.0001    0.0130
  41117            192864           196629           CONDUIT           25.0   -0.0400    0.0130
  41119            196631           192864           CONDUIT          276.0    4.0068    0.0130
  41180            196357           196631           CONDUIT          283.0    5.5208    0.0130
  41181            41181            196357           CONDUIT          400.0    2.5258    0.0130
  41197            41197            41181            CONDUIT          200.0    5.2070    0.0130
  41198            41198            41197            CONDUIT          292.0    6.1038    0.0130
  41199            41199            41198            CONDUIT          496.0    3.3507    0.0130
  41200            41200            41199            CONDUIT           95.0    4.4465    0.0130
  41201            41201            41200            CONDUIT          242.0    4.5916    0.0130
  41202            41202            41201            CONDUIT          223.0    2.6422    0.0130
  41203            41203            41202            CONDUIT          184.0    6.1201    0.0130
  41204            41204            41203            CONDUIT          161.0    5.0063    0.0130
  41205            41205            41204            CONDUIT          207.0    4.3519    0.0130
  41206            41206            41205            CONDUIT          231.0    5.2018    0.0130
  41207            41207            41206            CONDUIT           98.0    9.2226    0.0130
  41208            41208            41207            CONDUIT           98.0    5.2111    0.0130
  41209            41209            41208            CONDUIT          251.0    7.5513    0.0130
  41210            41210            41209            CONDUIT           55.0   70.9306    0.0130
  41458            41458            41210            CONDUIT          195.0    1.2565    0.0130
  41459            41459            41458            CONDUIT          399.0    0.9750    0.0130
  41460            41460            41459            CONDUIT          228.0    1.6844    0.0130
  41461            41461            41460            CONDUIT          267.0    1.4983    0.0130
  41462            41462            41461            CONDUIT          111.0    5.3228    0.0130
  41465            41465            41462            CONDUIT          197.0    1.8480    0.0130
  41466            41466            41465            CONDUIT          140.0    2.8440    0.0130
  41467            41467            41466            CONDUIT          173.0    3.4587    0.0130
  41468            41468            41467            CONDUIT          165.0    5.2010    0.0130
  41469            41469            41468            CONDUIT          385.0    0.5273    0.0130
  41470            41470            41469            CONDUIT          247.0    2.7946    0.0130
  41471            41471            41470            CONDUIT          180.0    0.5000    0.0130
  41472            41472            41471            CONDUIT          229.0    0.5240    0.0130
  41473            41473            41472            CONDUIT           51.0    3.7477    0.0130
  41474            41474            41473            CONDUIT           68.0    3.3696    0.0130
  41479            41479            41474            CONDUIT          267.0    1.0862    0.0130
  41482            41482            41479            CONDUIT           20.0    1.0001    0.0130
  41483            41483            41482            CONDUIT          185.0    0.5027    0.0130
  41568            41568            41483            CONDUIT          242.0    0.5000    0.0130
  41546            41546            41568            CONDUIT           50.0    0.5000    0.0130
  41547            41547            41546            CONDUIT          167.0    0.5030    0.0130
  41548            41548            41547            CONDUIT          187.0    0.4973    0.0130
  41549            41549            41548            CONDUIT          177.0    0.4972    0.0130
  41550            41550            41549            CONDUIT          200.0    0.5000    0.0130
  41551            41551            41550            CONDUIT          206.0    0.5000    0.0130
  41552            41552            41551            CONDUIT          137.0    0.4964    0.0130
  41555            41555            41552            CONDUIT          307.0    0.4853    0.0130
  41556            41556            41555            CONDUIT           28.0    3.6095    0.0130
  41557            41557            41556            CONDUIT           90.0    1.1556    0.0130
  41558            41558            41557            CONDUIT          148.0    0.7027    0.0130
  41487            41487            41468            CONDUIT           42.0   11.8927    0.0130
  41506            41506            41468            CONDUIT          167.0    4.4295    0.0130
  41507            41507            41506            CONDUIT           55.0    5.5357    0.0130
  41526            41526            41507            CONDUIT          199.0    2.9561    0.0130
  41530            41530            41526            CONDUIT          200.0    7.2540    0.0130
  41488            41488            41487            CONDUIT          219.0    0.8676    0.0130
  41489            41489            41488            CONDUIT          359.0    0.8524    0.0130
  41504            41504            41489            CONDUIT          171.0   15.2867    0.0130
  41503            41503            41504            CONDUIT           90.0    4.2260    0.0130
  41502            41502            41503            CONDUIT          148.0    4.2606    0.0130
  41501            41501            41502            CONDUIT          270.0    4.2446    0.0130
  40666            40666a           41501            CONDUIT           97.0    8.5569    0.0130
  41182            41182            41181            CONDUIT          400.0    1.3001    0.0130
  41189            41189            41188            CONDUIT          100.0   33.5763    0.0130
  41190            41190            41189            CONDUIT          230.0    4.1209    0.0130
  41191            41191            41190            CONDUIT          250.0    1.4602    0.0130
  41192            41192            41191            CONDUIT          390.0    4.4814    0.0130
  41193            41193            41192            CONDUIT          150.0    2.6009    0.0130
  41611            41611            41193            CONDUIT          137.0    6.0475    0.0130
  41116            41116            192864           CONDUIT          131.0    0.6718    0.0130
  41115            41115            41116            CONDUIT          372.0    0.6989    0.0130
  41114            41114            41115            CONDUIT          135.0    1.3038    0.0130
  41113            41113            41114            CONDUIT          611.0    0.7332    0.0130
  41112            41112            41113            CONDUIT          137.0    0.2555    0.0130
  41111            41111            41112            CONDUIT          327.0    0.2508    0.0130
  41179            41179            41111            CONDUIT          303.0    0.2574    0.0130
  41110            41110            41179            CONDUIT           44.0    0.2500    0.0130
  41120            41120            41110            CONDUIT          230.0    1.3914    0.0130
  41121            41121            41120            CONDUIT          199.0    1.4172    0.0130
  41122            41122            41121            CONDUIT           44.0    1.5911    0.0130
  41127            41127            41122            CONDUIT           90.0    2.0782    0.0130
  41158            41158            41127            CONDUIT          190.0    2.3111    0.0130
  41128            41128            41158            CONDUIT           14.0    1.0001    0.0130
  41129            41129            41128            CONDUIT          320.0    1.3251    0.0130
  4182808          4182808          41129            CONDUIT          175.0    0.5714    0.0130
  4182806          4182806          4182808          CONDUIT           19.0    1.0527    0.0130
  4182803          4182803          4182806          CONDUIT          291.0    0.4811    0.0130
  4182801          4182801          4182803          CONDUIT          152.0    0.4868    0.0130
  41362            41362            4182801          CONDUIT           16.0    0.9375    0.0130
  41363            41363            41362            CONDUIT          367.0    0.3270    0.0130
  41366            41366            41363            CONDUIT          318.0    0.5252    0.0130
  41367            41367            41366            CONDUIT          268.0    0.8881    0.0130
  41368            41368            41367            CONDUIT           46.0    0.7826    0.0130
  41369            41369            41368            CONDUIT           44.0    2.0231    0.0130
  41370            41370            41369            CONDUIT           25.0    0.8000    0.0130
  41371            41371            41370            CONDUIT          102.0    0.5098    0.0130
  41372            41372            41371            CONDUIT           22.0    1.0001    0.0130
  41373            41373            41372            CONDUIT           23.0    1.8699    0.0130
  41375            41375            41373            CONDUIT          147.0    1.0545    0.0130
  41376            41376            41375            CONDUIT          131.0    2.2219    0.0130
  41377            41377            41376            CONDUIT          191.0    2.0266    0.0130
  41378            41378            41377            CONDUIT          269.0    1.8591    0.0130
  41379            41379            41378            CONDUIT          395.0    1.5192    0.0130
  41380            41380            41379            CONDUIT          310.0    7.9932    0.0130
  41381            41381            41380            CONDUIT          325.0    9.6477    0.0130
  41382            41382            41381            CONDUIT          160.0   17.6695    0.0130
  40102            40102            40101a           CONDUIT          164.0    0.6098    0.0130
  40103            40103            40102            CONDUIT          189.0    4.7779    0.0130
  40104            40104            40103            CONDUIT          123.0    0.3089    0.0130
  40105            40105            40104            CONDUIT          177.0    0.3051    0.0130
  40106            40666            40105            CONDUIT          394.0    0.2995    0.0130
  40107            40107            40666            CONDUIT          173.0    0.4277    0.0130
  40108            40108            40107            CONDUIT          118.0    1.5256    0.0130
  40109            40667            40108            CONDUIT          241.0    1.3238    0.0130
  40116            40116            40667            CONDUIT          180.0   10.5584    0.0130
  40117            40117            40116            CONDUIT          337.0    8.6074    0.0130
  40118            40118            40117            CONDUIT          215.0    8.8484    0.0130
  40119            40119            40118            CONDUIT          168.0   11.5768    0.0130
  40120            40120            40119            CONDUIT          237.0   10.2989    0.0130
  40444            40444            40120            CONDUIT          217.0    9.6343    0.0130
  40443            40443            40444            CONDUIT          250.0   11.9974    0.0130
  40442            40442            40443            CONDUIT          317.0    7.2429    0.0130
  40441            40441            40442            CONDUIT          294.0   11.6670    0.0130
  40440            40440            40441            CONDUIT          247.0   15.6119    0.0130
  40439            40439            40440            CONDUIT          196.0   13.8031    0.0130
  40438            40438            40439            CONDUIT          162.0   14.6613    0.0130
  40437            40437            40438            CONDUIT          214.0   13.5431    0.0130
  209648           196392           41611            CONDUIT           35.0    8.3143    0.0130
  213597           204523           196392           CONDUIT          198.0    4.0083    0.0130
  210676           196443           204523           CONDUIT          103.0    4.1784    0.0130
  210644           196498           196443           CONDUIT          300.0    2.5308    0.0130
  210649           192853           196498           CONDUIT          165.0    2.3400    0.0130
  210628           196844           192853           CONDUIT          120.0    1.5335    0.0130
  210775           196835           196844           CONDUIT          400.0    1.5802    0.0130
  210772           196827           196835           CONDUIT          184.0    0.4946    0.0130
  210776           196838           196827           CONDUIT          216.0    0.5324    0.0130
  210771           196839           196838           CONDUIT          400.0    0.4500    0.0130
  210709           196840           196839           CONDUIT          185.0    0.4973    0.0130
  307              41182            307              CONDUIT          124.0  -25.5714    0.0130
  306              307              306              CONDUIT           46.0  -27.3856    0.0130
  305              305              306              CONDUIT          124.0    4.8201    0.0130
  304              305              304              CONDUIT          254.0   -3.4272    0.0130
  303              304              303              CONDUIT           65.0  -32.8752    0.0130
  302              303              302              CONDUIT          122.0  -17.2168    0.0130
  301              302              301              CONDUIT          231.0   -1.6019    0.0130
  41188            301              41188            CONDUIT           50.0   -2.7811    0.0130
  18               KC_R06-25        KC_R06-24        CONDUIT          548.0    0.1569    0.0130
  19               196629           KC_R06-25        CONDUIT           15.0    1.0001    0.0130
  20               KC_R06-24        KC_R06-23        CONDUIT           99.0    0.1111    0.0130
  21               KC_R06-23        KC_R06-22A       CONDUIT          130.0    0.2154    0.0130
  22               KC_R06-22A       KC_R06-22        CONDUIT          353.0    0.1558    0.0130
  23               KC_R06-22        KC_R06-21A       CONDUIT          332.0    0.4217    0.0130
  24               KC_R06-21A       KC_R06-21        CONDUIT          332.0    0.4217    0.0130
  25               KC_R06-21        KC_R06-20A       CONDUIT          332.0    0.1657    0.0130
  26               KC_R06-20A       KC_R06-20        CONDUIT          332.0    0.1657    0.0130
  27               KC_R06-20        KC_R06-19A       CONDUIT          330.0    1.3486    0.0130
  28               KC_R06-19A       KC_R06-19        CONDUIT          330.0    1.3486    0.0130
  
  
  *********************
  Cross Section Summary
  *********************
                                        Full     Full     Hyd.     Max.   No. of     Full
  Conduit          Shape               Depth     Area     Rad.    Width  Barrels     Flow
  ---------------------------------------------------------------------------------------
  39156            CIRCULAR             2.00     3.14     0.50     2.00        1 11133.33
  39155            CIRCULAR             2.00     3.14     0.50     2.00        1 10837.54
  39154            CIRCULAR             2.00     3.14     0.50     2.00        1  9567.97
  39153            CIRCULAR             2.00     3.14     0.50     2.00        1  9521.40
  39152            CIRCULAR             2.00     3.14     0.50     2.00        1  9567.97
  39151            CIRCULAR             2.00     3.14     0.50     2.00        1  7028.88
  39150            CIRCULAR             2.00     3.14     0.50     2.00        1 13341.79
  39149            CIRCULAR             2.00     3.14     0.50     2.00        1  8079.04
  39173            CIRCULAR             2.00     3.14     0.50     2.00        1  8231.07
  39169            CIRCULAR             2.00     3.14     0.50     2.00        1  8290.50
  39168            CIRCULAR             2.00     3.14     0.50     2.00        1  5427.36
  39167            CIRCULAR             2.00     3.14     0.50     2.00        1  5561.39
  39166            CIRCULAR             2.00     3.14     0.50     2.00        1  6135.78
  39164            CIRCULAR             2.00     3.14     0.50     2.00        1  4842.46
  39163            CIRCULAR             0.83     0.54     0.21     0.83        1   654.65
  39249            CIRCULAR             0.83     0.54     0.21     0.83        1   638.66
  39248            CIRCULAR             0.83     0.54     0.21     0.83        1   780.59
  39247            CIRCULAR             0.83     0.54     0.21     0.83        1   563.80
  39225            CIRCULAR             0.83     0.54     0.21     0.83        1   513.51
  39224            CIRCULAR             0.83     0.54     0.21     0.83        1   623.18
  39218            CIRCULAR             0.83     0.54     0.21     0.83        1   602.78
  39214            CIRCULAR             0.83     0.54     0.21     0.83        1   541.29
  39213            CIRCULAR             0.83     0.54     0.21     0.83        1   639.45
  39195265         CIRCULAR             0.67     0.35     0.17     0.67        1   399.42
  39195288         CIRCULAR             0.67     0.35     0.17     0.67        1   607.67
  39195270         CIRCULAR             0.67     0.35     0.17     0.67        1   391.17
  39195272         CIRCULAR             0.67     0.35     0.17     0.67        1   530.35
  39208            CIRCULAR             0.67     0.35     0.17     0.67        1  1167.84
  39207            CIRCULAR             0.67     0.35     0.17     0.67        1   853.23
  39206            CIRCULAR             0.67     0.35     0.17     0.67        1  1521.67
  39204            CIRCULAR             0.67     0.35     0.17     0.67        1  1794.36
  39203            CIRCULAR             0.67     0.35     0.17     0.67        1  1079.53
  39195            CIRCULAR             0.67     0.35     0.17     0.67        1  1648.97
  39194            CIRCULAR             0.67     0.35     0.17     0.67        1  1687.50
  39193            CIRCULAR             0.67     0.35     0.17     0.67        1  2628.45
  39192            CIRCULAR             0.67     0.35     0.17     0.67        1  1673.69
  39406            CIRCULAR             0.67     0.35     0.17     0.67        1   390.18
  39405            CIRCULAR             0.67     0.35     0.17     0.67        1  1692.08
  39390            CIRCULAR             0.67     0.35     0.17     0.67        1   481.26
  39356            CIRCULAR             0.67     0.35     0.17     0.67        1   480.65
  39355            CIRCULAR             0.67     0.35     0.17     0.67        1  1140.10
  39354            CIRCULAR             0.67     0.35     0.17     0.67        1  2679.95
  39353            CIRCULAR             0.67     0.35     0.17     0.67        1  2704.35
  39404            CIRCULAR             0.67     0.35     0.17     0.67        1  1526.41
  39399            CIRCULAR             0.67     0.35     0.17     0.67        1  1535.19
  39398            CIRCULAR             0.67     0.35     0.17     0.67        1  1490.43
  39397            CIRCULAR             0.67     0.35     0.17     0.67        1  1274.01
  39396            CIRCULAR             0.67     0.35     0.17     0.67        1   843.46
  39395            CIRCULAR             0.67     0.35     0.17     0.67        1  1113.65
  39486            CIRCULAR             0.67     0.35     0.17     0.67        1  1092.17
  39485            CIRCULAR             0.67     0.35     0.17     0.67        1  1706.55
  39172            CIRCULAR             1.25     1.23     0.31     1.25        1  6200.83
  39171            CIRCULAR             0.83     0.54     0.21     0.83        1  2511.22
  39170            CIRCULAR             0.83     0.54     0.21     0.83        1  2476.10
  39259            CIRCULAR             0.83     0.54     0.21     0.83        1  2497.21
  39258            CIRCULAR             0.83     0.54     0.21     0.83        1  2351.44
  39257            CIRCULAR             0.83     0.54     0.21     0.83        1  1947.84
  39256            CIRCULAR             0.83     0.54     0.21     0.83        1  1823.64
  39255            CIRCULAR             0.83     0.54     0.21     0.83        1  2316.58
  39254            CIRCULAR             0.83     0.54     0.21     0.83        1  2343.71
  39253            CIRCULAR             0.83     0.54     0.21     0.83        1  1850.21
  39252            CIRCULAR             0.83     0.54     0.21     0.83        1  2090.10
  39251            CIRCULAR             0.83     0.54     0.21     0.83        1  2203.91
  39250            CIRCULAR             0.83     0.54     0.21     0.83        1  3115.44
  39522            CIRCULAR             0.83     0.54     0.21     0.83        1  3219.43
  39521            CIRCULAR             0.83     0.54     0.21     0.83        1  3007.53
  39520            CIRCULAR             0.83     0.54     0.21     0.83        1  2742.39
  39519            CIRCULAR             0.83     0.54     0.21     0.83        1  2376.84
  39518            CIRCULAR             0.67     0.35     0.17     0.67        1  2195.72
  39525            CIRCULAR             0.67     0.35     0.17     0.67        1  1757.36
  39524            CIRCULAR             1.00     0.79     0.25     1.00        1  4050.24
  39575            CIRCULAR             1.00     0.79     0.25     1.00        1  4752.92
  39574            CIRCULAR             1.00     0.79     0.25     1.00        1  4316.84
  39573            CIRCULAR             0.67     0.35     0.17     0.67        1  1589.86
  39572            CIRCULAR             0.67     0.35     0.17     0.67        1   382.86
  39571            CIRCULAR             0.67     0.35     0.17     0.67        1  1693.26
  39570            CIRCULAR             0.67     0.35     0.17     0.67        1  1233.71
  39568            CIRCULAR             0.67     0.35     0.17     0.67        1   971.42
  39567            CIRCULAR             0.67     0.35     0.17     0.67        1   517.83
  39565            CIRCULAR             0.67     0.35     0.17     0.67        1   757.44
  39564            CIRCULAR             0.67     0.35     0.17     0.67        1  1605.15
  39563            CIRCULAR             0.67     0.35     0.17     0.67        1  1193.38
  39562            CIRCULAR             0.67     0.35     0.17     0.67        1  1315.31
  39561            CIRCULAR             0.67     0.35     0.17     0.67        1  1320.00
  39798            CIRCULAR             0.67     0.35     0.17     0.67        1  2846.72
  39797            CIRCULAR             0.67     0.35     0.17     0.67        1   346.12
  39796            CIRCULAR             0.67     0.35     0.17     0.67        1   890.96
  39795            CIRCULAR             0.67     0.35     0.17     0.67        1  1364.80
  39191            CIRCULAR             1.00     0.79     0.25     1.00        1  2711.96
  39190            CIRCULAR             1.00     0.79     0.25     1.00        1  2411.04
  39189            CIRCULAR             1.00     0.79     0.25     1.00        1  3423.27
  39188            CIRCULAR             1.00     0.79     0.25     1.00        1  2690.29
  39181            CIRCULAR             1.00     0.79     0.25     1.00        1  4823.16
  39180            CIRCULAR             1.00     0.79     0.25     1.00        1  1103.75
  39179            CIRCULAR             1.00     0.79     0.25     1.00        1  2861.28
  39306            CIRCULAR             1.00     0.79     0.25     1.00        1  3189.44
  39305            CIRCULAR             1.00     0.79     0.25     1.00        1  1361.60
  39304            CIRCULAR             0.67     0.35     0.17     0.67        1   446.24
  39303            CIRCULAR             0.83     0.54     0.21     0.83        1  2047.02
  39300            CIRCULAR             0.67     0.35     0.17     0.67        1   547.96
  39299            CIRCULAR             0.83     0.54     0.21     0.83        1  1888.85
  39333            CIRCULAR             0.67     0.35     0.17     0.67        1   547.12
  39332            CIRCULAR             0.83     0.54     0.21     0.83        1  1121.07
  39331            CIRCULAR             0.67     0.35     0.17     0.67        1   571.50
  39484            CIRCULAR             0.67     0.35     0.17     0.67        1  1710.31
  39480            CIRCULAR             0.67     0.35     0.17     0.67        1  1175.61
  39479            CIRCULAR             0.67     0.35     0.17     0.67        1  1593.13
  39436089a        CIRCULAR             0.67     0.35     0.17     0.67        1   549.65
  41117            CIRCULAR             1.50     1.77     0.38     1.50        1   942.93
  41119            CIRCULAR             1.00     0.79     0.25     1.00        1  3200.93
  41180            CIRCULAR             1.00     0.79     0.25     1.00        1  3757.29
  41181            CIRCULAR             1.00     0.79     0.25     1.00        1  2541.41
  41197            CIRCULAR             0.83     0.54     0.21     0.83        1  2220.13
  41198            CIRCULAR             0.83     0.54     0.21     0.83        1  2403.72
  41199            CIRCULAR             0.83     0.54     0.21     0.83        1  1780.94
  41200            CIRCULAR             0.83     0.54     0.21     0.83        1  2051.60
  41201            CIRCULAR             0.83     0.54     0.21     0.83        1  2084.81
  41202            CIRCULAR             0.83     0.54     0.21     0.83        1  1581.48
  41203            CIRCULAR             0.83     0.54     0.21     0.83        1  2406.93
  41204            CIRCULAR             0.83     0.54     0.21     0.83        1  2176.91
  41205            CIRCULAR             0.83     0.54     0.21     0.83        1  2029.67
  41206            CIRCULAR             0.83     0.54     0.21     0.83        1  2219.02
  41207            CIRCULAR             0.83     0.54     0.21     0.83        1  2954.68
  41208            CIRCULAR             0.83     0.54     0.21     0.83        1  2221.01
  41209            CIRCULAR             0.83     0.54     0.21     0.83        1  2673.59
  41210            CIRCULAR             0.83     0.54     0.21     0.83        1  8194.07
  41458            CIRCULAR             0.83     0.54     0.21     0.83        1  1090.60
  41459            CIRCULAR             0.83     0.54     0.21     0.83        1   960.69
  41460            CIRCULAR             0.83     0.54     0.21     0.83        1  1262.73
  41461            CIRCULAR             0.83     0.54     0.21     0.83        1  1190.92
  41462            CIRCULAR             0.83     0.54     0.21     0.83        1  2244.68
  41465            CIRCULAR             0.83     0.54     0.21     0.83        1  1322.63
  41466            CIRCULAR             0.83     0.54     0.21     0.83        1  1640.77
  41467            CIRCULAR             0.83     0.54     0.21     0.83        1  1809.42
  41468            CIRCULAR             0.83     0.54     0.21     0.83        1  2218.83
  41469            CIRCULAR             0.83     0.54     0.21     0.83        1   706.49
  41470            CIRCULAR             0.67     0.35     0.17     0.67        1   907.90
  41471            CIRCULAR             0.67     0.35     0.17     0.67        1   384.03
  41472            CIRCULAR             0.67     0.35     0.17     0.67        1   393.15
  41473            CIRCULAR             0.67     0.35     0.17     0.67        1  1051.38
  41474            CIRCULAR             0.67     0.35     0.17     0.67        1   996.93
  41479            CIRCULAR             0.67     0.35     0.17     0.67        1   566.02
  41482            CIRCULAR             0.67     0.35     0.17     0.67        1   543.11
  41483            CIRCULAR             0.67     0.35     0.17     0.67        1   385.07
  41568            CIRCULAR             0.67     0.35     0.17     0.67        1   384.03
  41546            CIRCULAR             0.67     0.35     0.17     0.67        1   384.03
  41547            CIRCULAR             0.67     0.35     0.17     0.67        1   385.18
  41548            CIRCULAR             0.67     0.35     0.17     0.67        1   383.00
  41549            CIRCULAR             0.67     0.35     0.17     0.67        1   382.94
  41550            CIRCULAR             0.67     0.35     0.17     0.67        1   384.03
  41551            CIRCULAR             0.67     0.35     0.17     0.67        1   384.03
  41552            CIRCULAR             0.67     0.35     0.17     0.67        1   382.63
  41555            CIRCULAR             0.67     0.35     0.17     0.67        1   378.36
  41556            CIRCULAR             0.67     0.35     0.17     0.67        1  1031.81
  41557            CIRCULAR             0.67     0.35     0.17     0.67        1   583.83
  41558            CIRCULAR             0.67     0.35     0.17     0.67        1   455.27
  41487            CIRCULAR             0.83     0.54     0.21     0.83        1  3355.24
  41506            CIRCULAR             0.67     0.35     0.17     0.67        1  1143.02
  41507            CIRCULAR             0.67     0.35     0.17     0.67        1  1277.81
  41526            CIRCULAR             0.67     0.35     0.17     0.67        1   933.76
  41530            CIRCULAR             0.67     0.35     0.17     0.67        1  1462.74
  41488            CIRCULAR             0.67     0.35     0.17     0.67        1   511.96
  41489            CIRCULAR             0.67     0.35     0.17     0.67        1   501.42
  41504            CIRCULAR             0.67     0.35     0.17     0.67        1  2123.41
  41503            CIRCULAR             0.67     0.35     0.17     0.67        1  1116.46
  41502            CIRCULAR             0.67     0.35     0.17     0.67        1  1121.02
  41501            CIRCULAR             0.67     0.35     0.17     0.67        1  1118.91
  40666            CIRCULAR             0.50     0.20     0.13     0.50        1   736.69
  41182            CIRCULAR             0.83     0.54     0.21     0.83        1  1109.36
  41189            CIRCULAR             0.83     0.54     0.21     0.83        1  5637.67
  41190            CIRCULAR             0.83     0.54     0.21     0.83        1  1975.05
  41191            CIRCULAR             0.83     0.54     0.21     0.83        1  1175.66
  41192            CIRCULAR             0.83     0.54     0.21     0.83        1  2059.64
  41193            CIRCULAR             0.83     0.54     0.21     0.83        1  1569.07
  41611            CIRCULAR             0.83     0.54     0.21     0.83        1  2392.61
  41116            CIRCULAR             1.33     1.39     0.33     1.33        1  2803.86
  41115            CIRCULAR             1.33     1.39     0.33     1.33        1  2860.00
  41114            CIRCULAR             1.33     1.39     0.33     1.33        1  3906.19
  41113            CIRCULAR             1.33     1.39     0.33     1.33        1  2929.34
  41112            CIRCULAR             1.33     1.39     0.33     1.33        1  1729.10
  41111            CIRCULAR             1.33     1.39     0.33     1.33        1  1713.09
  41179            CIRCULAR             1.33     1.39     0.33     1.33        1  1735.69
  41110            CIRCULAR             1.33     1.39     0.33     1.33        1  1710.47
  41120            CIRCULAR             1.25     1.23     0.31     1.25        1  3420.06
  41121            CIRCULAR             1.25     1.23     0.31     1.25        1  3451.61
  41122            CIRCULAR             1.25     1.23     0.31     1.25        1  3657.23
  41127            CIRCULAR             1.00     0.79     0.25     1.00        1  2305.27
  41158            CIRCULAR             1.00     0.79     0.25     1.00        1  2431.02
  41128            CIRCULAR             1.00     0.79     0.25     1.00        1  1599.14
  41129            CIRCULAR             1.00     0.79     0.25     1.00        1  1840.78
  4182808          CIRCULAR             1.00     0.79     0.25     1.00        1  1208.81
  4182806          CIRCULAR             1.00     0.79     0.25     1.00        1  1640.68
  4182803          CIRCULAR             1.00     0.79     0.25     1.00        1  1109.16
  4182801          CIRCULAR             1.00     0.79     0.25     1.00        1  1115.76
  41362            CIRCULAR             1.00     0.79     0.25     1.00        1  1548.35
  41363            CIRCULAR             1.00     0.79     0.25     1.00        1   914.39
  41366            CIRCULAR             1.00     0.79     0.25     1.00        1  1158.84
  41367            CIRCULAR             1.00     0.79     0.25     1.00        1  1506.97
  41368            CIRCULAR             0.83     0.54     0.21     0.83        1   860.72
  41369            CIRCULAR             0.83     0.54     0.21     0.83        1  1383.87
  41370            CIRCULAR             0.83     0.54     0.21     0.83        1   870.23
  41371            CIRCULAR             0.83     0.54     0.21     0.83        1   694.68
  41372            CIRCULAR             0.83     0.54     0.21     0.83        1   972.96
  41373            CIRCULAR             0.83     0.54     0.21     0.83        1  1330.43
  41375            CIRCULAR             0.83     0.54     0.21     0.83        1   999.08
  41376            CIRCULAR             0.83     0.54     0.21     0.83        1  1450.27
  41377            CIRCULAR             0.83     0.54     0.21     0.83        1  1385.05
  41378            CIRCULAR             0.83     0.54     0.21     0.83        1  1326.57
  41379            CIRCULAR             0.83     0.54     0.21     0.83        1  1199.18
  41380            CIRCULAR             0.67     0.35     0.17     0.67        1  1553.94
  41381            CIRCULAR             0.67     0.35     0.17     0.67        1  1707.20
  41382            CIRCULAR             0.67     0.35     0.17     0.67        1  2310.40
  40102            CIRCULAR             0.83     0.54     0.21     0.83        1   767.09
  40103            CIRCULAR             0.83     0.54     0.21     0.83        1  2147.24
  40104            CIRCULAR             0.83     0.54     0.21     0.83        1   546.01
  40105            CIRCULAR             0.83     0.54     0.21     0.83        1   542.59
  40106            CIRCULAR             0.83     0.54     0.21     0.83        1   537.60
  40107            CIRCULAR             0.83     0.54     0.21     0.83        1   642.48
  40108            CIRCULAR             0.67     0.35     0.17     0.67        1   670.81
  40109            CIRCULAR             0.83     0.54     0.21     0.83        1  1130.23
  40116            CIRCULAR             0.67     0.35     0.17     0.67        1  1764.72
  40117            CIRCULAR             0.67     0.35     0.17     0.67        1  1593.35
  40118            CIRCULAR             0.67     0.35     0.17     0.67        1  1615.51
  40119            CIRCULAR             0.67     0.35     0.17     0.67        1  1847.87
  40120            CIRCULAR             0.67     0.35     0.17     0.67        1  1742.90
  40444            CIRCULAR             0.67     0.35     0.17     0.67        1  1685.72
  40443            CIRCULAR             0.67     0.35     0.17     0.67        1  1881.14
  40442            CIRCULAR             0.67     0.35     0.17     0.67        1  1461.62
  40441            CIRCULAR             0.67     0.35     0.17     0.67        1  1855.06
  40440            CIRCULAR             0.67     0.35     0.17     0.67        1  2145.88
  40439            CIRCULAR             0.67     0.35     0.17     0.67        1  2017.74
  40438            CIRCULAR             0.67     0.35     0.17     0.67        1  2079.52
  40437            CIRCULAR             0.67     0.35     0.17     0.67        1  1998.65
  209648           CIRCULAR             0.83     0.54     0.21     0.83        1  2805.41
  213597           CIRCULAR             1.00     0.79     0.25     1.00        1  3201.50
  210676           CIRCULAR             1.00     0.79     0.25     1.00        1  3268.74
  210644           CIRCULAR             0.83     0.54     0.21     0.83        1  1547.79
  210649           CIRCULAR             0.83     0.54     0.21     0.83        1  1488.31
  210628           CIRCULAR             0.83     0.54     0.21     0.83        1  1204.83
  210775           CIRCULAR             0.67     0.35     0.17     0.67        1   690.92
  210772           CIRCULAR             0.83     0.54     0.21     0.83        1   684.22
  210776           CIRCULAR             0.83     0.54     0.21     0.83        1   709.92
  210771           CIRCULAR             0.83     0.54     0.21     0.83        1   652.67
  210709           CIRCULAR             0.83     0.54     0.21     0.83        1   686.11
  307              CIRCULAR             0.83     0.54     0.21     0.83        1  4919.94
  306              CIRCULAR             0.83     0.54     0.21     0.83        1  5091.48
  305              CIRCULAR             0.83     0.54     0.21     0.83        1  2136.05
  304              CIRCULAR             0.83     0.54     0.21     0.83        1  1801.16
  303              CIRCULAR             0.83     0.54     0.21     0.83        1  5578.49
  302              CIRCULAR             0.83     0.54     0.21     0.83        1  4037.01
  301              CIRCULAR             0.83     0.54     0.21     0.83        1  1231.42
  41188            CIRCULAR             0.83     0.54     0.21     0.83        1  1622.52
  18               CIRCULAR             1.50     1.77     0.38     1.50        1  1867.72
  19               CIRCULAR             1.50     1.77     0.38     1.50        1  4714.79
  20               CIRCULAR             1.50     1.77     0.38     1.50        1  1571.56
  21               CIRCULAR             1.50     1.77     0.38     1.50        1  2188.06
  22               CIRCULAR             1.50     1.77     0.38     1.50        1  1861.00
  23               CIRCULAR             1.50     1.77     0.38     1.50        1  3061.60
  24               CIRCULAR             1.50     1.77     0.38     1.50        1  3061.60
  25               CIRCULAR             1.50     1.77     0.38     1.50        1  1918.95
  26               CIRCULAR             1.50     1.77     0.38     1.50        1  1918.95
  27               CIRCULAR             1.50     1.77     0.38     1.50        1  5475.13
  28               CIRCULAR             1.50     1.77     0.38     1.50        1  5475.13
  
  
  
  *********************************************************
  NOTE: The summary statistics displayed in this report are
  based on results found at every computational time step,  
  not just on results from each reporting time step.
  *********************************************************
  
  ****************
  Analysis Options
  ****************
  Flow Units ............... GPM
  Process Models:
    Rainfall/Runoff ........ NO
    RDII ................... NO
    Snowmelt ............... NO
    Groundwater ............ NO
    Flow Routing ........... YES
    Ponding Allowed ........ YES
    Water Quality .......... NO
  Flow Routing Method ...... DYNWAVE
  Surcharge Method ......... EXTRAN
  Starting Date ............ 11/06/2009 00:00:00
  Ending Date .............. 11/07/2009 00:00:00
  Antecedent Dry Days ...... 0.0
  Report Time Step ......... 00:01:00
  Routing Time Step ........ 10.00 sec
  Variable Time Step ....... YES
  Maximum Trials ........... 8
  Number of Threads ........ 1
  Head Tolerance ........... 0.001000 ft
  
  
  **************************        Volume        Volume
  Flow Routing Continuity        acre-feet      10^6 gal
  **************************     ---------     ---------
  Dry Weather Inflow .......         7.971         2.597
  Wet Weather Inflow .......         0.000         0.000
  Groundwater Inflow .......         0.000         0.000
  RDII Inflow ..............         0.000         0.000
  External Inflow ..........         0.022         0.007
  External Outflow .........         7.875         2.566
  Flooding Loss ............         0.000         0.000
  Evaporation Loss .........         0.000         0.000
  Exfiltration Loss ........         0.000         0.000
  Initial Stored Volume ....         0.026         0.009
  Final Stored Volume ......         0.134         0.044
  Continuity Error (%) .....         0.121
  
  
  ***************************
  Time-Step Critical Elements
  ***************************
  Link 41117 (81.17%)
  
  
  ********************************
  Highest Flow Instability Indexes
  ********************************
  All links are stable.
  
  
  *************************
  Routing Time Step Summary
  *************************
  Minimum Time Step           :     6.58 sec
  Average Time Step           :     8.17 sec
  Maximum Time Step           :    10.00 sec
  Percent in Steady State     :    -0.00
  Average Iterations per Step :     2.01
  Percent Not Converging      :     0.07
  
  
  ******************
  Node Depth Summary
  ******************
  
  ---------------------------------------------------------------------------------
                                 Average  Maximum  Maximum  Time of Max    Reported
                                   Depth    Depth      HGL   Occurrence   Max Depth
  Node                 Type         Feet     Feet     Feet  days hr:min        Feet
  ---------------------------------------------------------------------------------
  39149                JUNCTION     0.30     0.42   329.99     0  09:00        0.42
  39150                JUNCTION     0.24     0.33   328.97     0  09:00        0.33
  39151                JUNCTION     0.32     0.45   327.45     0  09:00        0.45
  39152                JUNCTION     0.28     0.39   324.87     0  09:00        0.39
  39153                JUNCTION     0.28     0.39   323.74     0  09:00        0.39
  39154                JUNCTION     0.28     0.39   322.62     0  09:00        0.39
  39155                JUNCTION     0.26     0.37   321.57     0  09:01        0.37
  39156                JUNCTION     0.27     0.38   318.58     0  09:00        0.38
  39163                JUNCTION     0.22     0.32   336.51     0  09:00        0.32
  39164                JUNCTION     0.23     0.31   335.49     0  09:00        0.31
  39166                JUNCTION     0.19     0.27   334.75     0  09:00        0.27
  39167                JUNCTION     0.20     0.28   334.01     0  09:00        0.28
  39168                JUNCTION     0.21     0.29   333.65     0  09:00        0.29
  39169                JUNCTION     0.29     0.40   332.99     0  09:00        0.40
  39170                JUNCTION     0.13     0.18   371.67     0  08:59        0.18
  39171                JUNCTION     0.13     0.18   355.67     0  08:58        0.18
  39172                JUNCTION     0.17     0.24   335.90     0  09:00        0.24
  39173                JUNCTION     0.29     0.40   330.89     0  09:00        0.40
  39179                JUNCTION     0.11     0.15   400.74     0  09:00        0.15
  39180                JUNCTION     0.17     0.23   395.12     0  09:00        0.23
  39181                JUNCTION     0.09     0.13   393.91     0  09:00        0.13
  39188                JUNCTION     0.14     0.19   369.68     0  09:00        0.19
  39189                JUNCTION     0.12     0.17   363.76     0  09:00        0.17
  39190                JUNCTION     0.15     0.20   345.79     0  09:00        0.20
  39191                JUNCTION     0.14     0.19   340.68     0  09:00        0.19
  39192                JUNCTION     0.09     0.13   516.48     0  08:55        0.13
  39193                JUNCTION     0.08     0.11   490.60     0  08:52        0.11
  39194                JUNCTION     0.09     0.13   441.92     0  08:57        0.13
  39195                JUNCTION     0.10     0.13   429.62     0  08:57        0.13
  39203                JUNCTION     0.12     0.17   399.26     0  08:55        0.17
  39204                JUNCTION     0.10     0.14   392.23     0  09:00        0.14
  39206                JUNCTION     0.11     0.15   372.64     0  08:55        0.15
  39207                JUNCTION     0.14     0.20   363.19     0  08:56        0.20
  39208                JUNCTION     0.12     0.17   357.76     0  08:57        0.17
  39213                JUNCTION     0.21     0.29   344.32     0  08:59        0.29
  39214                JUNCTION     0.23     0.32   343.53     0  08:59        0.32
  39218                JUNCTION     0.22     0.31   342.93     0  09:00        0.31
  39224                JUNCTION     0.23     0.32   341.20     0  09:00        0.32
  39225                JUNCTION     0.26     0.37   340.29     0  09:00        0.37
  39247                JUNCTION     0.25     0.36   339.68     0  09:00        0.36
  39248                JUNCTION     0.20     0.29   338.21     0  09:00        0.29
  39249                JUNCTION     0.23     0.32   337.08     0  09:00        0.32
  39250                JUNCTION     0.11     0.15   519.64     0  08:43        0.15
  39251                JUNCTION     0.13     0.18   501.72     0  08:46        0.18
  39252                JUNCTION     0.13     0.18   489.27     0  08:46        0.18
  39253                JUNCTION     0.15     0.21   481.70     0  08:47        0.21
  39254                JUNCTION     0.13     0.18   471.27     0  08:51        0.18
  39255                JUNCTION     0.13     0.18   462.77     0  08:54        0.18
  39256                JUNCTION     0.15     0.21   439.38     0  08:57        0.21
  39257                JUNCTION     0.14     0.20   437.69     0  08:54        0.20
  39258                JUNCTION     0.13     0.18   421.27     0  08:52        0.18
  39259                JUNCTION     0.13     0.18   397.67     0  08:55        0.18
  39299                JUNCTION     0.10     0.14   441.79     0  08:51        0.14
  39300                JUNCTION     0.15     0.21   433.70     0  08:46        0.21
  39303                JUNCTION     0.10     0.13   431.83     0  08:34        0.13
  39304                JUNCTION     0.17     0.23   422.55     0  09:00        0.23
  39305                JUNCTION     0.15     0.21   419.80     0  09:00        0.21
  39306                JUNCTION     0.10     0.14   416.73     0  09:00        0.14
  39331                JUNCTION     0.15     0.20   445.80     0  08:01        0.20
  39332                JUNCTION     0.13     0.18   444.68     0  08:09        0.18
  39333                JUNCTION     0.15     0.21   443.11     0  08:55        0.21
  39405                JUNCTION     0.09     0.13   543.62     0  08:57        0.13
  39406                JUNCTION     0.20     0.28   517.37     0  08:50        0.28
  39518                JUNCTION     0.08     0.12   634.21     0  08:45        0.12
  39519                JUNCTION     0.11     0.16   588.75     0  08:55        0.16
  39520                JUNCTION     0.11     0.15   569.14     0  08:49        0.15
  39521                JUNCTION     0.11     0.15   559.24     0  08:50        0.15
  39522                JUNCTION     0.10     0.14   535.73     0  08:58        0.14
  39524                JUNCTION     0.09     0.12   673.52     0  08:43        0.12
  39525                JUNCTION     0.09     0.13   666.83     0  08:49        0.13
  39561                JUNCTION     0.09     0.13   778.22     0  08:38        0.13
  39562                JUNCTION     0.09     0.13   770.98     0  08:39        0.13
  39563                JUNCTION     0.10     0.13   765.62     0  08:41        0.13
  39564                JUNCTION     0.08     0.11   756.60     0  08:32        0.11
  39565                JUNCTION     0.12     0.17   736.76     0  08:40        0.17
  39567                JUNCTION     0.14     0.20   733.29     0  08:40        0.20
  39568                JUNCTION     0.12     0.16   731.65     0  08:47        0.16
  39570                JUNCTION     0.10     0.15   724.64     0  08:55        0.15
  39571                JUNCTION     0.09     0.12   716.61     0  08:38        0.12
  39572                JUNCTION     0.19     0.27   700.22     0  08:38        0.27
  39573                JUNCTION     0.09     0.13   699.16     0  08:43        0.13
  39574                JUNCTION     0.09     0.12   692.88     0  08:40        0.12
  39575                JUNCTION     0.08     0.11   686.81     0  08:40        0.11
  39795                JUNCTION     0.09     0.12   802.82     0  08:15        0.12
  39796                JUNCTION     0.11     0.15   785.58     0  08:16        0.15
  39797                JUNCTION     0.18     0.26   781.86     0  08:27        0.26
  39798                JUNCTION     0.06     0.09   781.13     0  08:38        0.09
  39195265             JUNCTION     0.03     0.05   344.68     0  08:53        0.05
  39195288             JUNCTION     0.03     0.04   346.64     0  08:59        0.04
  39195270             JUNCTION     0.04     0.05   347.14     0  08:57        0.05
  39195272             JUNCTION     0.03     0.04   348.58     0  08:59        0.04
[...]
  39399                  15.94   0.00  0.00  0.00  0.00  0.00  0.00  1.00  0.00  0.00
  39398                   2.34   0.00  0.00  0.00  0.00  0.00  0.00  1.00  0.00  0.00
  39397                   1.00   0.00  0.00  0.00  0.00  0.00  0.00  1.00  0.00  0.00
  39396                   1.00   0.00  0.00  0.00  0.00  0.00  0.00  1.00  0.00  0.00
  39395                   1.00   0.00  0.00  0.00  0.00  1.00  0.00  0.00  0.99  0.00
  39486                   1.00   0.00  0.00  0.00  0.00  1.00  0.00  0.00  1.00  0.00
  39485                   3.28   0.00  0.00  0.00  0.00  0.00  0.00  1.00  0.00  0.00
  39172                   2.71   0.00  0.00  0.00  0.00  0.77  0.00  0.23  0.72  0.00
  39171                   1.00   0.00  0.00  0.00  0.00  0.00  0.00  1.00  0.00  0.00
  39170                   1.00   0.00  0.00  0.00  0.00  0.00  0.00  1.00  0.00  0.00
  39259                   1.00   0.00  0.00  0.00  0.00  0.00  0.00  1.00  0.00  0.00
  39258                   1.00   0.00  0.00  0.00  0.00  0.00  0.00  1.00  0.00  0.00
  39257                   1.00   0.00  0.00  0.00  0.00  0.00  0.00  1.00  0.00  0.00
  39256                   2.82   0.00  0.00  0.00  0.00  0.00  0.00  1.00  0.00  0.00
  39255                   1.00   0.00  0.00  0.00  0.00  0.00  0.00  1.00  0.00  0.00
  39254                   1.02   0.00  0.00  0.00  0.00  0.00  0.00  1.00  0.00  0.00
  39253                   1.00   0.00  0.00  0.00  0.00  0.00  0.00  1.00  0.00  0.00
  39252                   1.00   0.00  0.00  0.00  0.00  0.00  0.00  1.00  0.00  0.00
  39251                   1.00   0.00  0.00  0.00  0.00  0.00  0.00  1.00  0.00  0.00
  39250                   1.03   0.00  0.00  0.00  0.00  0.00  0.00  1.00  0.00  0.00
  39522                   1.25   0.00  0.00  0.00  0.00  0.00  0.00  1.00  0.00  0.00
  39521                   1.00   0.00  0.00  0.00  0.00  0.00  0.00  1.00  0.00  0.00
  39520                   1.32   0.00  0.00  0.00  0.00  1.00  0.00  0.00  0.00  0.00
  39519                   1.00   0.00  0.00  0.00  0.00  1.00  0.00  0.00  0.01  0.00
  39518                   1.00   0.00  0.00  0.00  0.00  0.00  0.00  1.00  0.00  0.00
  39525                   1.00   0.00  0.00  0.00  0.00  0.00  0.00  1.00  0.00  0.00
  39524                   1.77   0.00  0.00  0.00  0.00  0.00  0.00  1.00  0.00  0.00
  39575                   1.28   0.00  0.00  0.00  0.00  0.00  0.00  1.00  0.00  0.00
  39574                   2.19   0.00  0.00  0.00  0.00  0.00  0.00  1.00  0.00  0.00
  39573                   1.99   0.00  0.00  0.00  0.00  0.00  0.00  1.00  0.00  0.00
  39572                   1.00   0.00  0.00  0.00  0.00  0.00  0.00  1.00  0.00  0.00
  39571                   1.00   0.00  0.00  0.00  0.00  0.54  0.00  0.46  0.50  0.00
  39570                   1.00   0.00  0.00  0.00  0.00  0.00  0.00  1.00  0.00  0.00
  39568                   1.00   0.00  0.00  0.00  0.00  0.00  0.00  1.00  0.00  0.00
  39567                   1.00   0.00  0.00  0.00  0.00  0.00  0.00  1.00  0.00  0.00
  39565                   1.00   0.00  0.00  0.00  0.00  0.00  0.00  1.00  0.00  0.00
  39564                   1.00   0.00  0.00  0.00  0.00  0.00  0.00  1.00  0.00  0.00
  39563                   1.00   0.00  0.00  0.00  0.00  0.00  0.00  1.00  0.00  0.00
  39562                   1.41   0.00  0.00  0.00  0.00  0.00  0.00  1.00  0.00  0.00
  39561                   1.05   0.00  0.00  0.00  0.00  0.00  0.00  1.00  0.00  0.00
  39798                  20.58   0.00  0.00  0.00  0.00  0.00  0.00  1.00  0.00  0.00
  39797                   1.00   0.00  0.00  0.00  0.00  0.00  0.00  1.00  0.00  0.00
  39796                   1.00   0.00  0.00  0.00  0.00  0.05  0.00  0.95  0.04  0.00
  39795                   1.00   0.00  0.00  0.00  0.00  0.00  0.00  1.00  0.00  0.00
  39191                   1.00   0.00  0.00  0.00  0.00  1.00  0.00  0.00  0.99  0.00
  39190                   1.00   0.00  0.00  0.00  0.00  0.00  0.00  1.00  0.00  0.00
  39189                   1.00   0.00  0.00  0.00  0.00  0.00  0.00  1.00  0.00  0.00
  39188                   1.00   0.00  0.00  0.00  0.00  0.00  0.00  1.00  0.00  0.00
  39181                   1.00   0.00  0.00  0.00  0.00  0.00  0.00  1.00  0.00  0.00
  39180                   1.00   0.00  0.00  0.00  0.00  0.00  0.00  1.00  0.00  0.00
  39179                   1.00   0.00  0.00  0.00  0.00  0.00  0.00  1.00  0.00  0.00
  39306                   1.00   0.00  0.00  0.00  0.00  0.00  0.00  1.00  0.00  0.00
  39305                   1.00   0.00  0.00  0.00  0.00  0.00  0.00  1.00  0.00  0.00
  39304                   1.00   0.00  0.00  0.00  0.00  0.00  0.00  1.00  0.00  0.00
  39303                   1.00   0.00  0.00  0.00  0.00  0.00  0.00  1.00  0.00  0.00
  39300                   1.00   0.00  0.00  0.00  0.00  0.00  0.00  1.00  0.00  0.00
  39299                   1.00   0.00  0.00  0.00  0.00  0.00  0.00  1.00  0.00  0.00
  39333                   1.00   0.00  0.00  0.00  0.00  0.00  0.00  1.00  0.00  0.00
  39332                   1.00   0.00  0.00  0.00  0.00  0.00  0.00  1.00  0.00  0.00
  39331                   1.12   0.00  0.00  0.00  0.00  0.00  0.00  1.00  0.00  0.00
  39484                   2.24   0.00  0.00  0.00  0.00  0.00  0.00  1.00  0.00  0.00
  39480                   1.00   0.00  0.00  0.00  0.00  0.00  0.00  1.00  0.00  0.00
  39479                   1.00   0.00  0.00  0.00  0.00  0.00  0.00  1.00  0.00  0.00
  39436089a               1.00   1.00  0.00  0.00  0.00  0.00  0.00  0.00  0.00  0.00
  41117                   3.26   0.00  0.00  0.00  0.29  0.00  0.71  0.00  0.00  0.00
  41119                   1.00   0.00  0.00  0.00  0.74  0.26  0.00  0.00  1.00  0.00
  41180                   1.00   0.00  0.00  0.00  0.00  1.00  0.00  0.00  0.99  0.00
  41181                   1.00   0.00  0.00  0.00  0.00  1.00  0.00  0.00  0.00  0.00
  41197                   1.00   0.00  0.00  0.00  0.00  1.00  0.00  0.00  1.00  0.00
  41198                   1.00   0.00  0.00  0.00  0.00  1.00  0.00  0.00  1.00  0.00
  41199                   1.00   0.00  0.00  0.00  0.00  1.00  0.00  0.00  0.00  0.00
  41200                   1.43   0.00  0.00  0.00  0.00  1.00  0.00  0.00  1.00  0.00
  41201                   1.00   0.00  0.00  0.00  0.00  1.00  0.00  0.00  1.00  0.00
  41202                   1.00   0.00  0.00  0.00  0.00  1.00  0.00  0.00  0.00  0.00
  41203                   1.00   0.00  0.01  0.00  0.00  0.99  0.00  0.00  0.99  0.00
  41204                   1.00   0.01  0.00  0.00  0.00  0.99  0.00  0.00  0.00  0.00
  41205                   1.00   0.01  0.00  0.00  0.00  0.99  0.00  0.00  0.00  0.00
  41206                   1.00   0.01  0.00  0.00  0.00  0.99  0.00  0.00  0.99  0.00
  41207                   1.77   0.00  0.00  0.00  0.00  0.99  0.00  0.00  0.99  0.00
  41208                   1.46   0.00  0.00  0.00  0.00  1.00  0.00  0.00  0.00  0.00
  41209                   1.00   0.00  0.00  0.00  0.00  1.00  0.00  0.00  0.99  0.00
  41210                   7.07   0.00  0.00  0.00  0.00  1.00  0.00  0.00  0.99  0.00
  41458                   1.00   0.00  0.00  0.00  0.00  1.00  0.00  0.00  0.00  0.00
  41459                   1.00   0.00  0.00  0.00  0.00  1.00  0.00  0.00  0.99  0.00
  41460                   1.00   0.00  0.00  0.00  0.00  1.00  0.00  0.00  0.99  0.00
  41461                   1.00   0.00  0.00  0.00  0.00  1.00  0.00  0.00  1.00  0.00
  41462                   1.30   0.00  0.00  0.00  0.00  1.00  0.00  0.00  1.00  0.00
  41465                   1.00   0.00  0.00  0.00  0.00  1.00  0.00  0.00  0.00  0.00
  41466                   1.00   0.00  0.00  0.00  0.00  1.00  0.00  0.00  1.00  0.00
  41467                   1.00   0.00  0.00  0.00  0.00  1.00  0.00  0.00  1.00  0.00
  41468                   1.00   0.00  0.00  0.00  0.00  1.00  0.00  0.00  1.00  0.00
  41469                   1.00   0.00  1.00  0.00  0.00  0.00  0.00  0.00  0.00  0.00
  41470                   1.00   1.00  0.00  0.00  0.00  0.00  0.00  0.00  0.00  0.00
  41471                   1.00   1.00  0.00  0.00  0.00  0.00  0.00  0.00  0.00  0.00
  41472                   1.00   1.00  0.00  0.00  0.00  0.00  0.00  0.00  0.00  0.00
  41473                   2.22   1.00  0.00  0.00  0.00  0.00  0.00  0.00  0.00  0.00
  41474                   1.62   1.00  0.00  0.00  0.00  0.00  0.00  0.00  0.00  0.00
  41479                   1.00   1.00  0.00  0.00  0.00  0.00  0.00  0.00  0.00  0.00
  41482                   4.05   1.00  0.00  0.00  0.00  0.00  0.00  0.00  0.00  0.00
  41483                   1.00   1.00  0.00  0.00  0.00  0.00  0.00  0.00  0.00  0.00
  41568                   1.00   1.00  0.00  0.00  0.00  0.00  0.00  0.00  0.00  0.00
  41546                   1.42   1.00  0.00  0.00  0.00  0.00  0.00  0.00  0.00  0.00
  41547                   1.00   1.00  0.00  0.00  0.00  0.00  0.00  0.00  0.00  0.00
  41548                   1.00   1.00  0.00  0.00  0.00  0.00  0.00  0.00  0.00  0.00
  41549                   1.00   1.00  0.00  0.00  0.00  0.00  0.00  0.00  0.00  0.00
  41550                   1.00   1.00  0.00  0.00  0.00  0.00  0.00  0.00  0.00  0.00
  41551                   1.00   1.00  0.00  0.00  0.00  0.00  0.00  0.00  0.00  0.00
  41552                   1.00   1.00  0.00  0.00  0.00  0.00  0.00  0.00  0.00  0.00
  41555                   1.00   1.00  0.00  0.00  0.00  0.00  0.00  0.00  0.00  0.00
  41556                   4.00   1.00  0.00  0.00  0.00  0.00  0.00  0.00  0.00  0.00
  41557                   1.00   1.00  0.00  0.00  0.00  0.00  0.00  0.00  0.00  0.00
  41558                   1.00   1.00  0.00  0.00  0.00  0.00  0.00  0.00  0.00  0.00
  41487                   4.52   0.00  0.00  0.00  1.00  0.00  0.00  0.00  1.00  0.00
  41506                   1.00   0.00  1.00  0.00  0.00  0.00  0.00  0.00  0.00  0.00
  41507                   2.32   1.00  0.00  0.00  0.00  0.00  0.00  0.00  0.00  0.00
  41526                   1.00   1.00  0.00  0.00  0.00  0.00  0.00  0.00  0.00  0.00
  41530                   1.00   1.00  0.00  0.00  0.00  0.00  0.00  0.00  0.00  0.00
  41488                   1.00   0.00  0.00  0.00  0.00  0.00  0.00  1.00  0.00  0.00
  41489                   1.00   1.00  0.00  0.00  0.00  0.00  0.00  0.00  0.00  0.00
  41504                   1.06   1.00  0.00  0.00  0.00  0.00  0.00  0.00  0.00  0.00
  41503                   1.31   1.00  0.00  0.00  0.00  0.00  0.00  0.00  0.00  0.00
  41502                   1.00   1.00  0.00  0.00  0.00  0.00  0.00  0.00  0.00  0.00
  41501                   1.00   1.00  0.00  0.00  0.00  0.00  0.00  0.00  0.00  0.00
  40666                   1.28   1.00  0.00  0.00  0.00  0.00  0.00  0.00  0.00  0.00
  41182                   1.00   0.01  0.00  0.00  0.00  0.00  0.00  0.99  0.00  0.00
  41189                   2.84   0.00  0.00  0.00  0.00  1.00  0.00  0.00  1.00  0.00
  41190                   1.00   0.00  0.00  0.00  0.00  0.00  0.00  1.00  0.00  0.00
  41191                   1.00   0.00  0.00  0.00  0.00  0.00  0.00  1.00  0.00  0.00
  41192                   1.00   0.00  0.00  0.00  0.00  0.23  0.00  0.77  0.17  0.00
  41193                   1.00   0.00  0.00  0.00  0.00  0.00  0.00  1.00  0.00  0.00
  41611                   1.10   0.00  0.00  0.00  0.00  0.00  0.00  1.00  0.00  0.00
  41116                   1.00   0.01  0.00  0.00  0.99  0.00  0.00  0.00  0.99  0.00
  41115                   1.00   0.00  0.00  0.00  0.00  0.99  0.00  0.00  0.94  0.00
  41114                   1.00   0.00  0.00  0.00  0.00  0.99  0.00  0.00  0.99  0.00
  41113                   1.00   0.00  0.00  0.00  0.00  0.00  0.00  1.00  0.00  0.00
  41112                   1.00   0.00  0.00  0.00  0.00  0.00  0.00  1.00  0.00  0.00
  41111                   1.00   0.00  0.00  0.00  0.42  0.00  0.00  0.58  0.00  0.00
  41179                   1.00   0.00  0.00  0.00  0.67  0.00  0.00  0.33  0.00  0.00
  41110                   2.11   0.00  0.00  0.00  0.69  0.00  0.00  0.31  0.00  0.00
  41120                   1.00   0.00  0.00  0.00  0.00  0.84  0.00  0.16  0.80  0.00
  41121                   1.00   0.00  0.00  0.00  0.00  0.00  0.00  1.00  0.00  0.00
  41122                   2.95   0.00  0.00  0.00  0.00  0.00  0.00  1.00  0.00  0.00
  41127                   1.36   0.00  0.00  0.00  0.00  0.00  0.00  1.00  0.00  0.00
  41158                   1.00   0.00  0.00  0.00  0.00  1.00  0.00  0.00  0.99  0.00
  41128                   7.29   0.00  0.00  0.00  0.00  0.00  0.00  1.00  0.00  0.00
  41129                   1.00   0.00  0.00  0.00  0.00  0.32  0.00  0.68  0.29  0.00
  4182808                 1.00   0.00  0.00  0.00  0.00  0.00  0.00  1.00  0.00  0.00
  4182806                 5.44   0.00  0.00  0.00  0.00  1.00  0.00  0.00  0.00  0.00
  4182803                 1.00   0.00  0.00  0.00  0.00  1.00  0.00  0.00  0.00  0.00
  4182801                 1.00   0.00  0.00  0.00  0.00  0.00  0.00  1.00  0.00  0.00
  41362                   6.29   0.00  0.00  0.00  0.00  0.00  0.00  1.00  0.00  0.00
  41363                   1.00   0.00  0.00  0.00  0.00  0.00  0.00  1.00  0.00  0.00
  41366                   1.00   0.00  0.00  0.00  0.00  0.00  0.00  1.00  0.00  0.00
  41367                   1.00   0.00  0.00  0.00  0.00  0.00  0.00  1.00  0.00  0.00
  41368                   1.89   0.00  0.00  0.00  0.00  0.00  0.00  1.00  0.00  0.00
  41369                   2.47   0.00  0.00  0.00  0.00  1.00  0.00  0.00  1.00  0.00
  41370                   3.50   0.00  0.00  0.00  0.00  1.00  0.00  0.00  0.74  0.00
  41371                   1.00   0.00  0.00  0.00  0.21  0.79  0.00  0.00  0.00  0.00
  41372                   4.17   0.00  0.00  0.00  0.00  1.00  0.00  0.00  0.18  0.00
  41373                   4.63   0.00  0.00  0.00  0.00  1.00  0.00  0.00  0.99  0.00
  41375                   1.00   0.00  0.00  0.00  0.00  1.00  0.00  0.00  0.00  0.00
  41376                   1.00   0.00  0.00  0.00  0.01  0.99  0.00  0.00  1.00  0.00
  41377                   1.00   0.00  0.00  0.00  0.00  1.00  0.00  0.00  0.00  0.00
  41378                   1.00   0.00  0.00  0.00  0.00  1.00  0.00  0.00  0.01  0.00
  41379                   1.00   0.00  0.00  0.00  0.00  1.00  0.00  0.00  0.00  0.00
  41380                   1.00   0.00  0.00  0.00  0.00  0.00  0.00  1.00  0.00  0.00
  41381                   1.00   0.00  0.00  0.00  0.00  0.00  0.00  1.00  0.00  0.00
  41382                   1.20   0.00  0.00  0.00  0.00  1.00  0.00  0.00  1.00  0.00
  40102                   1.00   0.00  0.00  0.00  0.00  0.00  0.00  1.00  0.00  0.00
  40103                   1.00   0.00  0.00  0.00  0.00  0.00  0.00  1.00  0.00  0.00
  40104                   1.00   0.00  0.00  0.00  0.00  0.99  0.00  0.00  0.00  0.00
  40105                   1.00   0.00  0.00  0.00  1.00  0.00  0.00  0.00  0.97  0.00
  40106                   1.00   0.00  0.00  0.00  1.00  0.00  0.00  0.00  0.08  0.00
  40107                   1.00   0.00  0.00  0.00  0.00  0.00  0.00  1.00  0.00  0.00
  40108                   1.00   0.00  0.00  0.00  0.00  1.00  0.00  0.00  0.99  0.00
  40109                   1.00   0.00  0.00  0.00  0.00  1.00  0.00  0.00  0.00  0.00
  40116                   1.00   0.00  0.00  0.00  0.00  0.04  0.00  0.96  0.00  0.00
  40117                   1.00   0.00  0.00  0.00  0.00  0.00  0.00  1.00  0.00  0.00
  40118                   1.00   0.00  0.00  0.00  0.00  0.00  0.00  1.00  0.00  0.00
  40119                   1.00   0.00  0.00  0.00  0.00  0.00  0.00  1.00  0.00  0.00
  40120                   1.00   0.00  0.00  0.00  0.00  0.00  0.00  1.00  0.00  0.00
  40444                   1.00   0.00  0.00  0.00  0.00  0.00  0.00  1.00  0.00  0.00
  40443                   1.00   0.00  0.00  0.00  0.00  0.00  0.00  1.00  0.00  0.00
  40442                   1.00   0.00  0.00  0.00  0.00  0.00  0.00  1.00  0.00  0.00
  40441                   1.00   0.00  0.00  0.00  0.00  0.00  0.00  1.00  0.00  0.00
  40440                   1.00   0.00  0.00  0.00  0.00  1.00  0.00  0.00  1.00  0.00
  40439                   1.00   0.00  0.00  0.00  0.00  0.00  0.00  1.00  0.00  0.00
  40438                   1.10   0.00  0.00  0.00  0.00  0.00  0.00  1.00  0.00  0.00
  40437                   1.00   0.00  0.00  0.00  0.00  0.00  0.00  1.00  0.00  0.00
  209648                  4.78   0.00  0.00  0.00  0.00  1.00  0.00  0.00  1.00  0.00
  213597                  1.00   0.00  0.00  0.00  0.00  1.00  0.00  0.00  1.00  0.00
  210676                  1.45   0.00  0.00  0.00  0.00  1.00  0.00  0.00  1.00  0.00
  210644                  1.00   0.00  0.00  0.00  0.00  1.00  0.00  0.00  0.00  0.00
  210649                  1.00   0.00  0.00  0.00  0.00  1.00  0.00  0.00  1.00  0.00
  210628                  1.00   0.00  0.00  0.00  0.10  0.90  0.00  0.00  1.00  0.00
  210775                  1.00   0.00  0.00  0.00  0.10  0.90  0.00  0.00  1.00  0.00
  210772                  1.00   0.00  0.00  0.00  1.00  0.00  0.00  0.00  1.00  0.00
  210776                  1.00   0.00  0.00  0.00  1.00  0.00  0.00  0.00  0.99  0.00
  210771                  1.00   0.00  0.00  0.00  1.00  0.00  0.00  0.00  1.00  0.00
  210709                  1.00   0.00  0.00  0.00  1.00  0.00  0.00  0.00  1.00  0.00
  307                     2.05   0.01  0.00  0.00  0.00  0.99  0.00  0.00  0.99  0.00
  306                     5.68   0.01  0.00  0.00  0.00  0.99  0.00  0.00  0.99  0.00
  305                     1.13   0.01  0.00  0.00  0.00  0.00  0.00  0.99  0.00  0.00
  304                     1.00   0.01  0.00  0.00  0.00  0.99  0.00  0.00  0.00  0.00
  303                     4.33   0.01  0.00  0.00  0.00  0.99  0.00  0.00  0.99  0.00
  302                     1.79   0.00  0.00  0.00  0.00  1.00  0.00  0.00  0.99  0.00
  301                     1.00   0.00  0.00  0.00  0.00  1.00  0.00  0.00  0.21  0.00
  41188                   2.37   0.00  0.00  0.00  0.00  1.00  0.00  0.00  1.00  0.00
  18                      1.00   0.00  0.00  0.00  0.99  0.00  0.00  0.01  0.00  0.00
  19                      8.60   0.00  0.00  0.00  0.98  0.00  0.00  0.01  0.00  0.00
  20                      1.00   0.00  0.00  0.00  0.96  0.00  0.00  0.04  0.00  0.00
  21                      1.00   0.00  0.00  0.00  0.99  0.00  0.00  0.01  0.02  0.00
  22                      1.00   0.00  0.00  0.00  0.00  0.00  0.00  1.00  0.00  0.00
  23                      1.00   0.00  0.00  0.00  0.00  0.00  0.00  1.00  0.00  0.00
  24                      1.00   0.00  0.00  0.00  0.99  0.00  0.00  0.01  0.98  0.00
  25                      1.00   0.00  0.00  0.00  0.99  0.00  0.00  0.01  0.00  0.00
  26                      1.00   0.00  0.00  0.00  0.00  0.00  0.00  1.00  0.00  0.00
  27                      1.00   0.00  0.00  0.00  0.00  0.00  0.00  1.00  0.00  0.00
  28                      1.00   0.00  0.00  0.00  0.00  0.00  0.00  1.00  0.00  0.00
  
  
  *************************
  Conduit Surcharge Summary
  *************************
  
  ----------------------------------------------------------------------------
                                                           Hours        Hours 
                         --------- Hours Full --------   Above Full   Capacity
  Conduit                Both Ends  Upstream  Dnstream   Normal Flow   Limited
  ----------------------------------------------------------------------------
  41117                       0.01      0.01      0.01     16.00         0.01
  41119                       0.01      0.01      1.67      0.01         0.01
  18                          0.01      0.01      0.01      1.74         0.01
  20                          0.01      0.01      0.01      4.99         0.01
  22                          0.01      0.01      0.01      3.82         0.01
  25                          0.01      0.01      0.01      2.87         0.01
  26                          0.01      0.01      0.01      2.86         0.01
  

  Analysis begun on:  Fri Nov 29 11:11:30 2019
  Analysis ended on:  Fri Nov 29 11:11:33 2019
  Total elapsed time: 00:00:03