
  EPA STORM WATER MANAGEMENT MODEL - VERSION 5.1 (Build 5.1.013)
  --------------------------------------------------------------

  DNV SWMM 9 Watershed Model. 
  
  WARNING 02: maximum depth increased for Node DUMMH6870
  
  *************
  Element Count
  *************
  Number of rain gages ...... 2
  Number of subcatchments ... 1846
  Number of nodes ........... 634
  Number of links ........... 638
  Number of pollutants ...... 0
  Number of land uses ....... 0
  
  
  ****************
  Raingage Summary
  ****************
                                                      Data       Recording
  Name                 Data Source                    Type       Interval 
  ------------------------------------------------------------------------
  RG_DN64              C:\Users\dickinre\Desktop\SEYMOUR_EXIST_10YR_20161003B.ISDB\JAN01_DN64scale_10yr.dat
  RG_VN52              C:\Users\dickinre\Desktop\SEYMOUR_EXIST_10YR_20161003B.ISDB\JAN01_VN52scale_10yr.dat
  
  
  ********************
  Subcatchment Summary
  ********************
  Name                       Area     Width   %Imperv    %Slope Rain Gage            Outlet              
  -----------------------------------------------------------------------------------------------------------
  10072-B--9887              0.06     30.79     42.50    5.4360 RG_DN64              DUMMH00581          
  10072-C--9892              0.07     31.86     23.20    4.7510 RG_DN64              STMMH05124          
  10087-BL--4349             0.05     30.25     84.60    6.9730 RG_VN52              STMMH00014          
  10087-BL--4350             0.03     20.80     50.80   13.1330 RG_VN52              STMMH00014          
  10283-1--19429             0.10     43.82     46.20   29.4330 RG_DN64              STMMH04712          
  10283-2--19453             0.10     44.56     39.90   29.0730 RG_DN64              DUMMH00629          
  10-3570--4160              0.02     20.75     34.60    9.3330 RG_DN64              DUMMH00578          
  10364-10--9821             0.08     41.73     35.30    5.6440 RG_DN64              STMMH04705          
  10364-11--9949             0.08     36.58     14.80    6.2500 RG_DN64              STMMH04704          
  10364-3--4526              0.08     37.14     31.20   10.8720 RG_DN64              STMMH04705          
  10364-4--9825              0.10     41.06     54.70    7.5520 RG_DN64              STMMH04705          
  10364-5--9824              0.11     43.04     31.90    5.3730 RG_DN64              STMMH04705          
  10364-7--19753             0.09     40.48     47.50    8.7950 RG_DN64              STMMH04704          
  10364-8--19754             0.04     27.91     43.80    6.2830 RG_DN64              STMMH04704          
  10364-8--9823              0.04     27.56     30.90    5.3930 RG_DN64              STMMH04704          
  10781-11--4014             0.04     27.77     46.50    9.4180 RG_VN52              DUMMH00557          
  11104-10--9911             0.09     42.90     55.90    6.1730 RG_DN64              STMMH04736          
  11104-11--9909             0.08     37.97     36.60    5.4010 RG_DN64              STMMH04736          
  11104-12--9910             0.07     34.99     31.90    7.7010 RG_DN64              STMMH04737          
  11104-13--9931             0.11     44.05     13.80    6.8040 RG_DN64              STMMH04737          
  11104-14--9895             0.21     66.96      6.50    7.5240 RG_DN64              STMMH04737          
  11104-15--4509             0.90    144.57      0.00   10.3740 RG_DN64              DUMMH6107           
  11104-17--19412            0.15     51.68     23.60   26.6520 RG_DN64              DUMMH00606          
  11104-18--19421            0.12     42.21     47.20   22.7160 RG_DN64              DUMMH00606          
  11104-19--19420            0.11     40.48     45.90   14.2380 RG_DN64              DUMMH00606          
  11104-20--4531             0.08     35.64      0.00   10.0780 RG_DN64              STMMH04701          
  11104-21--4530             0.11     42.18      0.00    9.6220 RG_DN64              STMMH04701          
  11104-22--4515             8.14    504.66      0.10   15.6460 RG_DN64              DUMMH5983           
  11104-2--4516              0.07     34.36     46.90    6.1710 RG_DN64              DUMMH6850           
  11104-3--4532              0.07     34.93     19.70   10.3910 RG_DN64              DUMMH6698           
  11104-4--4544              0.07     34.94     11.60   11.2500 RG_DN64              DUMMH6698           
  11104-5--4545              0.15     55.37      0.00    9.1760 RG_DN64              STMMH04734          
  11104-6--4546              0.09     40.74     21.10    5.3510 RG_DN64              STMMH04734          
  11104-7--4522              0.09     43.19     42.00    4.8210 RG_DN64              DUMMH00608          
  11104-9--4514              0.08     45.52     66.30    4.2840 RG_DN64              STMMH04736          
  11118-A--3989              3.66    282.90     76.30    7.3660 RG_VN52              STMMH05286          
  11118-A--4031              0.24     67.39     97.30    3.6110 RG_VN52              STMMH05286          
  11-1472-1--19565           0.01     13.06      0.00   10.1250 RG_VN52              DUMMH6645           
  11-1472-1RD--9550          0.06     36.54     58.30   44.6570 RG_VN52              DUMMH6645           
  11-1472-2--9553            0.05     30.78     99.90   39.4520 RG_VN52              DUMMH6645           
  11-1472-3--4227            0.06     29.94     80.70   36.6270 RG_VN52              DUMMH6646           
  11-1472-4--4200            0.06     30.02     23.60   22.2210 RG_VN52              DUMMH6646           
  11-16017-2--9787           0.73    137.72      3.80   24.5090 RG_DN64              STMMH04724          
  11208-A--4669              0.11     43.17      8.50   28.8100 RG_DN64              STMMH04266          
  11208-B--4481              0.09     38.10     12.40   38.9640 RG_DN64              STMMH04266          
  11208-C--4750              0.10     38.84     16.70   34.6330 RG_DN64              STMMH04270          
  11208-D--4477              0.14     52.36     16.50   38.4660 RG_DN64              STMMH04267          
  11208-E--4542              0.09     37.58     21.50   56.9300 RG_DN64              STMMH04267          
  11262-15--19444            0.09     45.55      1.00   11.4000 RG_DN64              STMMH04701          
  11262-16--19445            0.09     34.83     17.00    8.8380 RG_DN64              STMMH07543          
  11-3881-1--19606           0.04     18.81     44.10    3.4460 RG_VN52              STMMH07292          
  11-3881-13--19543          0.04     19.62     55.70    7.5440 RG_VN52              STMMH07292          
  11-3881-14--9540           0.04     19.23     52.10    5.5070 RG_VN52              STMMH07292          
  11-3881-2--19588           0.04     19.55     72.30    4.0900 RG_VN52              STMMH07292          
  11-3881-3--21231           0.04     18.65     86.00    4.6270 RG_VN52              STMMH02077          
  11-3881-4--19475           0.04     19.91     54.00    5.2940 RG_VN52              STMMH02077          
  11-3881-5AM--19576         0.05     27.48     59.10    5.0370 RG_VN52              STMMH07291          
  11-3881-7--9542            0.05     29.33     83.40    4.1800 RG_VN52              STMMH07291          
  11-3881-8--9546            0.04     19.10     73.10    3.9400 RG_VN52              STMMH07291          
  11-3881-A--19575           0.07     35.42     35.20    4.4240 RG_VN52              STMMH02076          
  11419-1--21046             0.07     32.38      0.00   34.5770 RG_DN64              STMMH04713          
  11419-2--9466              0.46    106.04      0.60   42.6500 RG_DN64              STMMH04713          
  11419-3--19392             5.84    398.77      0.10   23.8350 RG_DN64              STMMH05151          
  11419-4--9467              0.10     39.84     22.20    5.5510 RG_DN64              STMMH04715          
  11419-5--19443             0.11     49.69     25.90    5.1310 RG_DN64              STMMH07543          
  11-5311-3--4188            0.30     88.41      7.70    6.0520 RG_DN64              STMMH05023          
  11-5311-A--4175            0.13     54.84     36.60   11.5110 RG_DN64              STMMH05023          
  11-5311-A--4187            0.11     52.60     12.10    7.6730 RG_DN64              DUMMH00609          
  11633-5--9916              2.29    235.06     55.70    6.9810 RG_DN64              STMMH05122          
  11707-B--9889              0.06     27.35      0.00    4.8680 RG_DN64              STMMH05124          
  11775-1--4172              0.15     56.33      3.50    7.8900 RG_DN64              DUMMH00609          
  11853-1--19415             0.08     39.75     44.30   10.0390 RG_DN64              DUMMH00594          
  11899-3--19550             0.06     30.15     99.90    3.2460 RG_VN52              STMMH07290          
  11976-1--4259              0.48    102.85     92.10    4.1070 RG_VN52              STMMH01976          
  11996-Y--4018              5.15    235.28      5.40    8.8440 RG_DN64              OF_Harbour_12       
  12218-B--4697              0.19     63.75     19.50   12.8360 RG_VN52              STMMH07551          
  12247-A--9812              0.08     35.60      6.30   49.6400 RG_DN64              STMMH04294          
  12-2536-27--19700          0.04     19.46      0.00   22.5100 RG_DN64              DUMMH02062          
  12-2536-28--19699          0.03     19.31      0.00   14.2360 RG_DN64              DUMMH02062          
  12-2536-29--19698          0.04     19.68      0.00   13.5270 RG_DN64              STMMH04312          
  12-2536-53--19717          0.04     19.84      0.00   25.7090 RG_DN64              STMMH04310          
  12-2536-54--19718          0.03     18.59      0.00   28.4010 RG_DN64              STMMH04310          
  12-2536-55--19735          0.04     19.25      0.00   30.2000 RG_DN64              STMMH04310          
  12-2536-56--19710          0.03     19.15      0.00   38.5900 RG_DN64              STMMH04310          
  12-2536-57--19720          0.04     20.35      0.00   52.0770 RG_DN64              STMMH04310          
  12-2536-58--19721          0.03     19.07      0.00   59.5450 RG_DN64              STMMH04310          
  12-2536-59--19728          0.04     19.66      0.00   59.9460 RG_DN64              STMMH07334          
  12-2536-60--19729          0.03     18.88      0.00   59.4670 RG_DN64              STMMH07334          
  12-2536-61--9846           0.04     20.02      0.00   59.6700 RG_DN64              STMMH07334          
  12-2536-62--19727          0.03     19.23      0.00   51.4970 RG_DN64              STMMH07334          
  12-2536-63--19822          0.03     19.24      0.00   47.2500 RG_DN64              STMMH07334          
  12-2536-64--19716          0.04     19.31      0.00   42.8700 RG_DN64              STMMH07334          
  12-2536-65--9853           0.04     19.65      0.00   40.4360 RG_DN64              STMMH07334          
  12-2536-66--19709          0.03     19.07      0.00   43.0160 RG_DN64              STMMH07334          
  12-2536-67--9859           0.04     19.83      0.00   50.3150 RG_DN64              STMMH07334          
  12-2536-68--19719          0.03     17.93      0.00   55.0610 RG_DN64              STMMH07334          
  12-2536-69--19834          0.04     20.41      0.00   55.8000 RG_DN64              STMMH07334          
  12-2536-70--19688          0.03     18.74      0.00   59.1720 RG_DN64              STMMH07334          
  12-2536-70A--19833         0.04     19.70      0.00   56.8780 RG_DN64              STMMH04308          
  12-2536-71--9797           0.04     20.33      0.00   49.7310 RG_DN64              STMMH04311          
  12-2536-71A--19704         0.03     19.04      0.00   52.8050 RG_DN64              STMMH04311          
  12-2536-72--19724          0.03     19.02      0.00   33.1010 RG_DN64              STMMH04311          
  12-2536-73--19723          0.03     18.77      0.00   29.1730 RG_DN64              STMMH04311          
  12-2536-74--19714          0.04     19.51      0.00   32.0490 RG_DN64              STMMH04311          
  12-2536-75--21253          0.03     19.13      0.00   28.4520 RG_DN64              STMMH04312          
  12-2536-76--19722          0.03     19.30      0.00   25.9760 RG_DN64              DUMMH02062          
  12-2536-77--21252          0.04     19.63      0.00   30.8460 RG_DN64              DUMMH02062          
  12-2536-78--19697          0.04     19.59      0.00   37.5380 RG_DN64              DUMMH02062          
  12345-A--4192              0.11     46.47     32.80    7.6770 RG_DN64              DUMMH00603          
  12345-B--4107              0.11     47.98     32.00    8.7240 RG_DN64              STMMH05014          
  12345-C--4190              0.11     46.60     38.80   12.2310 RG_DN64              STMMH05017          
  12494-37R--21300           1.43    128.72      0.10   58.8690 RG_DN64              STMMH04285          
  12494-40--14768            0.52     84.18      0.00   51.8430 RG_DN64              STMMH04310          
  12494-47--19713            0.08     36.28      0.00   66.2330 RG_DN64              STMMH04310          
  12494-R46--14767           1.71    207.26      0.10   53.6830 RG_DN64              STMMH04310          
  12507-A--9474              1.30    178.54     61.80    6.6680 RG_DN64              DUMMH00589          
  12608-1--9816              5.59    414.97      1.80   29.1880 RG_DN64              DUMMH6293           
  12608-2--9817              0.82    128.11      0.00   10.1100 RG_DN64              STMMH04734          
  12608-3--4455              0.08     36.11     22.50   25.3240 RG_DN64              DUMMH6850           
  1-2670-107--4755           0.03     18.22      7.50    4.3020 RG_DN64              DUMMH6106           
  1-2670-108--9901           0.04     23.15     28.60    4.2520 RG_DN64              DUMMH00585          
  1-2670-B--4541             0.01      8.90     95.50    1.5060 RG_DN64              STMMH04742          
  1-2670-B--9933             0.02     18.39    100.00    2.2000 RG_DN64              STMMH04742          
  12694-D--4529              0.08     37.05     35.40   14.5470 RG_DN64              STMMH04706          
  12804--4528                0.09     38.60     18.90   38.7130 RG_DN64              STMMH04706          
  12804-F--9820              0.09     41.32     40.70    6.4220 RG_DN64              STMMH04705          
  12804-H--4527              0.18     64.65     12.90   43.6600 RG_DN64              STMMH04706          
  12804-I--19752             0.12     49.42     26.30    6.2270 RG_DN64              STMMH04706          
  12804-J--19760             0.11     47.91     22.50   11.4960 RG_DN64              STMMH04706          
  12804-K--9818              0.09     38.65     48.00    8.1440 RG_DN64              STMMH04706          
  12814-D--19756             0.11     48.34     50.00   16.6680 RG_DN64              DUMMH6293           
  12814-E--9952              0.12     50.61     19.40   16.2360 RG_DN64              DUMMH6293           
  12814-F--9951              0.25     81.37      4.60   20.6730 RG_DN64              DUMMH6293           
  12847-F--4765              0.08     36.42      3.70   60.4380 RG_DN64              STMMH04267          
  12847-H--4758              0.15     52.60      0.00   77.4250 RG_DN64              STMMH04288          
  12847-PK--4476             0.18     63.11      0.00   68.5270 RG_DN64              STMMH04289          
  1-2875-14--9897            0.04     26.91     31.30    7.3480 RG_DN64              DUMMH00596          
  1-2875-21--9894            0.03     20.51     46.80    4.7040 RG_DN64              STMMH04740          
  1-2875-22--9907            0.03     20.32     67.60    5.9550 RG_DN64              STMMH04740          
  1-2875-23--9908            0.05     29.42     50.60    4.1850 RG_DN64              STMMH04740          
  12955-A--9725              0.08     36.49     25.20    5.0100 RG_DN64              STMMH04300          
  12-9701-1--19692           0.09     43.31     38.50    5.6210 RG_DN64              STMMH04311          
  12-9701-2--9789            0.09     45.06     86.40    4.4240 RG_DN64              STMMH04311          
  12-9701-3--9830            0.08     44.05     42.40    7.5000 RG_DN64              STMMH04312          
  12983-J--4766              0.11     50.34      2.50   53.2280 RG_DN64              DUMMH6256           
  12983-K--4490              0.07     36.26     12.30   41.9370 RG_DN64              DUMMH02057          
  13077-A--9869              0.11     45.00      1.20   56.0970 RG_DN64              STMMH04294          
  13077-B--9813              0.08     35.44     34.50   23.6350 RG_DN64              STMMH04296          
  13077-C--9811              0.79    127.68      3.30   61.5210 RG_DN64              STMMH04294          
  13091-A--19478             0.42     84.82     56.80   15.1200 RG_VN52              STMMH03143          
  13091-A--19486             0.48    108.19     57.40    8.4350 RG_VN52              STMMH03142          
  13091-A--19491             0.43    111.70     35.20   22.6830 RG_VN52              STMMH03261          
  13091-A--9594              0.80    131.12     48.80   17.1800 RG_VN52              STMMH03242          
  13091-A--9704              0.86    128.03     53.50   13.9780 RG_VN52              STMMH02093          
  13153-1--21274             0.07     32.39     50.00   11.9690 RG_DN64              STMMH07334          
  13153-2--14766             0.07     34.96     32.90    8.4890 RG_DN64              STMMH07334          
  13164-H--19758             0.08     33.51     39.10   10.0270 RG_DN64              DUMMH00630          
  13164-I--19765             0.08     39.88     39.60   10.7620 RG_DN64              DUMMH00630          
  13164-J--19751             0.11     52.18     22.00    6.1860 RG_DN64              DUMMH00630          
  13209-C--4715              0.06     30.87     57.30    7.7800 RG_DN64              STMMH04304          
  13209-D--4717              0.06     30.78     44.90    6.8270 RG_DN64              STMMH04306          
  13209-E--4729              0.06     31.06     41.50   11.3160 RG_DN64              STMMH04306          
  13-2536-30--19689          0.03     18.88      1.80   17.7620 RG_DN64              STMMH04312          
  13-2536-31--9800           0.04     19.42      4.60   24.5370 RG_DN64              STMMH04311          
  13-2536-32--19696          0.03     18.81      2.10   31.5930 RG_DN64              STMMH04311          
  13-2536-33--19733          0.03     19.18      0.00   31.7680 RG_DN64              STMMH04311          
  13-2536-34--19693          0.04     19.78      0.00   29.1740 RG_DN64              STMMH04311          
  13335-A--4262              0.31     86.42     99.60    4.1490 RG_VN52              STMMH01977          
  13359-G--4547              0.06     26.45     30.40   13.3370 RG_DN64              STMMH04736          
  13359-H--4665              0.05     25.09     69.20   12.4790 RG_DN64              STMMH04736          
  13359-I--4508              0.05     23.76     52.90   12.1270 RG_DN64              STMMH04736          
  13481-E--19623             0.07     34.15     65.70    3.8360 RG_VN52              STMMH02018          
  13481-F--19613             0.08     34.33     48.80    7.6490 RG_VN52              STMMH02018          
  13803-A--4773              0.12     43.99     44.60    7.8680 RG_DN64              STMMH04265          
  13803-B--9717              0.08     37.28     39.10    9.7090 RG_DN64              STMMH04275          
  13803-C--9716              0.08     39.82     32.90    8.2100 RG_DN64              STMMH04275          
  13832-A--4521              0.09     44.51     23.70    4.9460 RG_DN64              DUMMH00608          
  13832-B--4543              0.07     39.77     59.30    3.5490 RG_DN64              STMMH04736          
  13862-I--4110              0.10     47.38     31.10    4.6790 RG_DN64              DUMMH00607          
  13914-A--9841              0.07     32.50     41.30    4.3690 RG_DN64              STMMH04297          
  13914-B--9838              0.07     32.15     36.50   10.1260 RG_DN64              STMMH04297          
  1394-C--9891               0.08     28.42     82.90    3.3100 RG_DN64              STMMH05122          
  13950-1--4007              1.93    224.75     94.80    5.0540 RG_VN52              STMMH04235          
  13972-I--4762              0.09     43.22      2.10   72.7160 RG_DN64              DUMMH6405           
  13972-J--4764              0.09     43.78     13.20   66.8070 RG_DN64              DUMMH6821           
  14047-1--4469              0.14     55.69     29.50   28.5920 RG_DN64              DUMMH02420          
  14068-A--4436              0.73    119.60     56.00    7.5150 RG_DN64              STMMH03318          
  14076-36--4772             0.08     36.13     18.00   11.7050 RG_DN64              STMMH04319          
  14076-37--4560             0.07     33.41     13.90   11.5800 RG_DN64              STMMH04319          
  14076-38--4480             0.07     33.23     28.10   11.5270 RG_DN64              STMMH04318          
  14076-39--4474             0.07     38.78     37.80   13.3870 RG_DN64              STMMH04318          
  14076-40--4776             0.08     39.58     48.60   13.2290 RG_DN64              STMMH04314          
  14076-41--4788             0.07     33.89     49.70    9.5650 RG_DN64              STMMH04314          
  14076-42--4789             0.07     34.17     77.30    3.5020 RG_DN64              STMMH04314          
  14076-43--9849             0.08     38.37     43.40   10.0130 RG_DN64              STMMH04315          
  14076-44--19678            0.09     44.62     38.90    8.2130 RG_DN64              STMMH04315          
  14076-45--4792             0.08     41.47     41.70    8.8470 RG_DN64              STMMH04315          
  14076-46--4791             0.08     40.48     54.70    7.0480 RG_DN64              STMMH04316          
  14076-47--4790             0.08     44.40     38.40   19.2310 RG_DN64              STMMH04316          
  14076-48--4777             0.09     48.90     21.20   26.6780 RG_DN64              DUMMH02064          
  14076-49--4778             0.13     45.21      7.90   21.1090 RG_DN64              DUMMH02064          
  14076-50--4793             0.08     39.78     40.20   12.8850 RG_DN64              STMMH04317          
  14076-51--4779             0.10     49.95     40.10   16.9940 RG_DN64              STMMH04317          
  14076-52--4783             0.08     39.80     42.70   19.0080 RG_DN64              STMMH04317          
  14076-53--4782             0.08     35.01     54.60   16.3020 RG_DN64              STMMH04316          
  14076-54--4785             0.08     38.31     32.30    7.6420 RG_DN64              STMMH04316          
  14076-55--4787             0.08     37.85     45.30   10.8160 RG_DN64              STMMH04316          
  14076-56--19677            0.08     38.51     61.00   11.8890 RG_DN64              STMMH04315          
  14076-57--4786             0.07     35.89     37.10   10.6680 RG_DN64              STMMH04315          
  14076-58--4784             0.07     35.85     59.40   10.1280 RG_DN64              STMMH04315          
  14076-59--4780             0.07     37.50     52.40   14.0520 RG_DN64              STMMH04314          
  14076-60--4781             0.06     35.56     32.40    9.7620 RG_DN64              STMMH04318          
  14088-1--19726             0.07     35.35     41.30    5.3790 RG_DN64              STMMH04304          
  14088-2--9805              0.07     34.93     37.40    9.0610 RG_DN64              STMMH04304          
  14089-1--4768              0.10     50.55     34.70   26.5390 RG_DN64              STMMH04288          
  14089-2--19681             0.07     36.42     44.30   19.6330 RG_DN64              STMMH04288          
  14089-3--19684             0.07     37.17     53.60   17.3880 RG_DN64              STMMH04282          
  14089-4--4767              0.07     34.55     39.20   16.0500 RG_DN64              STMMH04289          
  14089-5--4769              0.09     40.05     49.70   18.0300 RG_DN64              STMMH04289          
  14089-6--4770              0.09     39.51      1.80   57.0930 RG_DN64              DUMMH6255           
  14089-R8--14759            1.51    167.86      0.10   62.2770 RG_DN64              STMMH04284          
  14095-A--4448              1.69    227.44     68.40    6.3610 RG_VN52              STMMH05130          
  14123-1--19682             0.03     21.13     12.80   37.2420 RG_DN64              STMMH04264          
  14123-2--4771              0.08     40.80     15.40   51.9900 RG_DN64              STMMH04264          
  14151-1--4712              0.18     48.30     15.90   15.4730 RG_DN64              STMMH04723          
  14228-A--4181              0.10     51.18     23.90    9.5200 RG_DN64              STMMH05022          
  14228-F--4402              0.11     52.62     22.50    6.2800 RG_DN64              STMMH05012          
  14-2536-10--9807           0.04     18.81     60.10   25.6240 RG_DN64              STMMH07334          
  14-2536-11--19732          0.04     19.63     63.80   12.9200 RG_DN64              STMMH07334          
  14-2536-12--19691          0.04     19.86     13.60   12.8530 RG_DN64              STMMH07334          
  14-2536-18--19763          0.03     18.68     49.50   17.8270 RG_DN64              STMMH04308          
  14-2536-9--9851            0.04     19.66     57.00   20.4720 RG_DN64              STMMH07334          
  14-2536-C--19820           0.08     36.35     29.90    6.2450 RG_DN64              DUMMH02061          
  14-2536-E--19731           0.07     35.89     17.70   14.4850 RG_DN64              STMMH04308          
  14-2536-F--19690           0.11     49.83     40.90   11.9590 RG_DN64              STMMH04308          
  14-2536-G--9810            0.08     36.73     33.70    7.3750 RG_DN64              DUMMH02061          
  14-2536-H--19736           0.08     36.24     46.90   11.6620 RG_DN64              STMMH07334          
  14-2536-I--19715           0.07     35.72     34.90   19.5100 RG_DN64              STMMH04308          
  14-2536-J--9843            0.07     36.35     38.20   21.4820 RG_DN64              STMMH04308          
  14260-3--4700              0.07     36.98     13.40   12.4760 RG_DN64              STMMH04304          
  14260-4--4727              0.07     36.15     29.10   10.8350 RG_DN64              STMMH04303          
  14260-5--4732              0.07     34.04     28.80   14.6030 RG_DN64              STMMH04303          
  14260-6--4731              0.07     33.29     40.00   11.6660 RG_DN64              STMMH04305          
  14408-1--4722              0.09     47.08     18.80   21.0170 RG_DN64              STMMH04721          
  14408-2--4734              0.06     42.18     58.10   21.1240 RG_DN64              STMMH04306          
  14416-1--9644              0.67    100.59      5.60   16.3790 RG_DN64              STMMH03265          
  14449-1--19525             0.06     30.20     44.40    6.1730 RG_VN52              STMMH03343          
  14455-7--4698              0.08     36.19     35.00    4.3550 RG_DN64              DUMMH02058          
  14488-1--3992              0.07     34.63     98.80    7.2290 RG_VN52              STMMH04256          
  14498-1--4406              0.11     44.15     46.60    7.1120 RG_DN64              DUMMH00584          
  14507-D--9845              0.09     40.62     20.00   36.9410 RG_DN64              STMMH04294          
  14561-A--4492              0.12     39.97      1.00   20.0210 RG_DN64              DUMMH6268           
  14603-10--9735             0.08     38.00     23.70   19.0750 RG_DN64              STMMH04272          
  14603-11--9736             0.07     33.03     27.20   16.0010 RG_DN64              STMMH04272          
  14603-12--9719             0.09     35.53     20.90    8.8530 RG_DN64              STMMH04264          
  14603-14--9750             0.07     33.13     33.70   13.6000 RG_DN64              STMMH04273          
  14603-15--9726             0.07     34.92     22.70   10.8850 RG_DN64              STMMH04273          
  14603-16--9715             0.12     53.56     37.50    9.1990 RG_DN64              STMMH04273          
  14603-1--9755              0.07     37.02      1.80   37.2720 RG_DN64              DUMMH5770           
  14603-2--9754              0.07     33.36     33.80   29.0420 RG_DN64              STMMH04273          
  14603-3--9751              0.07     32.97     35.30   26.7920 RG_DN64              STMMH04273          
  14603-4--9760              0.07     33.05     36.70   20.7220 RG_DN64              STMMH04272          
  14603-5--19680             0.07     33.64     30.10   18.9490 RG_DN64              STMMH04272          
  14603-6--9759              0.08     35.06     25.30   12.3390 RG_DN64              STMMH04272          
  14603-7--19679             0.12     45.13     32.20   12.8530 RG_DN64              STMMH04272          
  14603-9--9753              0.07     43.45     30.50   24.9960 RG_DN64              STMMH04272          
  14603-B--9718              0.10     40.08     38.80   12.2560 RG_DN64              STMMH04264          
  14700-1--4450              0.12     45.36     42.30    8.6950 RG_DN64              DUMMH00596          
  14700-2--4672              0.08     47.09     15.90    7.7740 RG_DN64              STMMH04738          
  14702-1--19436             0.13     44.21      3.60   28.4610 RG_DN64              STMMH04717          
  14702-2--19438             0.07     33.47     33.00   16.3030 RG_DN64              STMMH04717          
  14717-10--9588             0.07     32.78     61.40    6.9400 RG_DN64              STMMH05004          
  14717-11--19463            0.07     33.50     51.30   15.7130 RG_DN64              STMMH05004          
  14717-12--9618             0.07     32.36     41.30   15.1510 RG_DN64              STMMH05004          
  14717-13--9611             0.07     33.50     50.00   19.5470 RG_DN64              STMMH05004          
  14717-14--19666            0.06     33.72     21.00   23.6080 RG_DN64              STMMH05003          
  14717-14--21192            0.01     10.64      0.00   62.9360 RG_DN64              STMMH05003          
  14717-15--19669            0.04     29.17     33.70   32.8130 RG_DN64              STMMH05003          
  14717-15--9616             0.03     24.01      0.00   53.5720 RG_DN64              STMMH05003          
  14717-16--19665            0.02     15.55      0.00   42.1230 RG_DN64              STMMH05003          
  14717-16--9602             0.06     38.22     48.70   28.3630 RG_DN64              STMMH05003          
  14717-1--9605              0.07     34.30     44.70   20.4220 RG_DN64              STMMH05021          
  14717-2--9586              0.07     33.31     49.10   16.1760 RG_DN64              STMMH05021          
  14717-3--4348              0.07     32.99     33.90   15.5990 RG_DN64              STMMH05022          
  14717-4--4347              0.07     32.63     38.70   20.7700 RG_DN64              STMMH05022          
  14717-7--4340              0.07     34.38     52.20   18.5930 RG_DN64              STMMH05005          
  14717-8--4339              0.07     34.15     55.80    9.6280 RG_DN64              STMMH05005          
  14717-9--9698              0.07     32.80     47.60    6.0040 RG_DN64              STMMH05004          
  1472-1--4366               0.04     28.10      0.00   59.6530 RG_VN52              DUMMH6870           
  1472-18--4379              0.02     19.85      0.00   14.3900 RG_VN52              DUMMH6870           
  1472-19--4372              0.03     26.20      0.00   25.3700 RG_VN52              DUMMH6870           
  1472-20--4364              0.04     27.56      0.00   60.2210 RG_VN52              DUMMH6870           
  1472-21--4378              0.05     35.65     28.80   44.0890 RG_VN52              DUMMH6870           
  1472-2--4369               0.05     27.01      0.00   59.1580 RG_VN52              DUMMH6870           
  14722-E--4291              0.08     35.81    100.00    5.2720 RG_VN52              STMMH01978          
  1472-3--4365               0.05     28.45      0.00   58.4800 RG_VN52              DUMMH6870           
  1472-4--4384               0.03     17.95      0.00   21.4920 RG_VN52              DUMMH6870           
  14762-1--21278             0.08     39.38     46.30   35.8880 RG_DN64              STMMH04310          
  14786-E--4260              0.39     87.63     95.20    4.8100 RG_VN52              STMMH01987          
  14818-1--9802              0.07     32.45     19.50    9.9870 RG_DN64              STMMH04297          
  14818-2--19695             0.07     32.87     30.00   10.0390 RG_DN64              DUMMH02388          
  14841-E--9465              0.08     45.37     96.50    3.2060 RG_VN52              STMMH04247          
  15016-1--9794              0.07     36.04     42.50   51.8900 RG_DN64              STMMH04293          
  15016-2--9793              0.07     35.83     43.40   61.6270 RG_DN64              STMMH04293          
  15025-E--4303              0.05     26.89     98.10    2.4400 RG_VN52              STMMH01960          
  15030-2--19460             0.17     55.34     21.70   46.5300 RG_DN64              DUMMH00584          
  15030-3--9689              0.12     46.73     38.20    7.4750 RG_DN64              DUMMH00584          
  15038-10--9708             0.39     75.21      0.00   39.7440 RG_DN64              DUMMH00568          
  15038-11--9696             0.50    106.34      0.70   35.1320 RG_VN52              DUMMH00563          
  15038-2--19554             0.64    109.23      0.50   14.4230 RG_DN64              STMMH03271          
  15038-5--4088              4.86    261.00      1.90   30.2090 RG_DN64              DUMMH00577          
  15038-9--4333              1.99    194.56     38.90   27.9350 RG_DN64              STMMH05003          
  15081-F--9697              0.11     49.05     32.90   22.6500 RG_DN64              STMMH05004          
  15158-10--9731             0.09     42.34     25.90   29.3700 RG_DN64              STMMH04280          
  15158-11--9762             0.07     36.60      9.60   13.1020 RG_DN64              STMMH04280          
  15158-12--9744             0.07     39.60     41.80    8.7830 RG_DN64              DUMMH02055          
  15158-13--9756             0.07     37.74     27.70   14.9840 RG_DN64              DUMMH02055          
  15158-14--9758             0.07     33.42     28.90   15.9860 RG_DN64              DUMMH02055          
  15158-15--19685            0.07     37.73     39.40   22.9550 RG_DN64              STMMH04280          
  15158-16--9720             0.07     36.61     42.80   29.1190 RG_DN64              STMMH04280          
  15158-17--4763             0.08     44.84     42.10   34.5020 RG_DN64              STMMH04282          
  15158-18--9730             0.14     53.06      7.20   29.5210 RG_DN64              STMMH04284          
  15158-19--9745             0.11     46.38     15.80   59.0490 RG_DN64              STMMH04284          
  15158-20--9746             0.11     51.13     16.00   56.9230 RG_DN64              STMMH04284          
  15158-21--9769             0.08     42.88     38.50   52.2170 RG_DN64              STMMH04284          
  15158-22--9770             0.07     33.12     35.60   44.4510 RG_DN64              STMMH04284          
  15158-23--9866             0.08     34.01     34.80   36.5360 RG_DN64              STMMH04279          
  15158-24--9865             0.09     34.95     34.60   34.0730 RG_DN64              STMMH04279          
  15158-25--9850             0.09     36.85     35.00   33.4160 RG_DN64              STMMH04279          
  15158-9--9743              0.07     38.35     63.50   24.9720 RG_DN64              STMMH04281          
  15220-A--9782              0.25     61.02      5.80   23.4180 RG_DN64              STMMH04272          
  15220-B--9729              0.11     39.78      0.00   32.3510 RG_DN64              STMMH04272          
  15220-C--9728              0.23     72.43      8.80   35.1840 RG_DN64              STMMH04272          
  15222-1--9590              0.16     71.05     28.40    8.3490 RG_DN64              STMMH05012          
  15222-2--4336              0.14     43.81     26.80   15.6930 RG_DN64              STMMH05012          
  15222-3--4109              0.11     49.80     24.30    5.9850 RG_DN64              STMMH05013          
  15-2536-39--19703          0.03     18.94      0.50   22.9970 RG_DN64              STMMH07334          
  15-2536-40--19702          0.04     19.72      0.00   20.7690 RG_DN64              STMMH07334          
  15-2536-41--19701          0.04     19.83      0.00   22.4420 RG_DN64              STMMH07334          
  15317-2--9544              0.21     71.33     84.30    4.9020 RG_VN52              STMMH02014          
  15357-F--4306              0.08     35.82     98.20    4.9840 RG_VN52              DUMMH02053          
  1-5423-2AM--4688           0.22     73.28      0.00    7.9470 RG_DN64              DUMMH5769           
  1-5423-3--4486             0.28     77.26      4.60   17.0990 RG_DN64              DUMMH5769           
  1-5423-4--4687             0.31     64.56     19.60   13.0040 RG_DN64              DUMMH5789           
  1-5423-5--4465             0.30     60.48     28.00    5.4290 RG_DN64              DUMMH5788           
  1-5423-6--4685             0.38     75.86      7.60    6.4510 RG_DN64              DUMMH03036          
  1-5423-7--4478             0.43     73.86     31.60    5.7720 RG_DN64              DUMMH03036          
  1-5423-8--4444             0.31     47.23     23.30    4.6090 RG_DN64              DUMMH03036          
  1-5423-A--4464             0.02     12.35      0.00   10.5640 RG_DN64              DUMMH5788           
  15472-A--9924              0.06     32.48     51.70    7.0180 RG_DN64              DUMMH00598          
  15472-B--21254             0.06     28.14     28.80   23.7090 RG_DN64              DUMMH00594          
  15485-B--9863              0.08     36.24     33.40    5.3280 RG_DN64              STMMH04300          
  15485-C--4742              0.07     36.20     40.60    4.8710 RG_DN64              STMMH04300          
  15485-D--9864              0.07     35.88     36.00    6.8020 RG_DN64              DUMMH02388          
  15485-E--9898              0.07     36.12     30.00    8.5290 RG_DN64              STMMH04299          
  15485-F--9784              0.07     35.73     19.90    4.6230 RG_DN64              STMMH04299          
  15485-H--4704              0.06     35.29     52.10    7.3100 RG_DN64              STMMH04299          
  15485-I--4702              0.06     36.97     54.30    9.2060 RG_DN64              STMMH04299          
  15485-J--4705              0.06     37.13     55.70    9.1540 RG_DN64              STMMH04300          
  15485-K--4728              0.06     36.52     34.40   11.2980 RG_DN64              STMMH04300          
  15485-L--9900              0.06     38.39     35.50   13.9200 RG_DN64              STMMH04300          
  15485-M--9803              0.06     40.22     24.90   18.3780 RG_DN64              STMMH04300          
  15485-N--4495              0.09     34.01     17.40   13.7450 RG_DN64              STMMH04302          
  15485-P--4462              0.07     35.15     44.80   13.5030 RG_DN64              STMMH04302          
  15485-R--4550              0.08     37.76     28.00   15.7330 RG_DN64              STMMH04301          
  15485-S--4551              0.06     32.76     20.80   16.0460 RG_DN64              STMMH04301          
  15485-T--4499              0.05     34.47     60.10   17.2560 RG_DN64              STMMH04301          
  15516-3--21040             0.06     27.87      0.00   16.0940 RG_DN64              STMMH05138          
  15516-4--21138             0.06     29.95      0.00   13.4030 RG_DN64              STMMH05138          
  15516-5--21122             0.06     28.18      0.00   12.9520 RG_DN64              STMMH05138          
  15516-6--21029             0.06     27.84      0.00   12.0770 RG_DN64              STMMH05138          
  15516-7--21124             0.06     28.38      0.00   14.1030 RG_DN64              STMMH05138          
  15516-8--21028             0.06     27.93      0.00   20.1080 RG_DN64              STMMH05138          
  15516-9--19408             0.06     27.85      0.00   17.9820 RG_DN64              DUMMH00613          
  15516-B--21032             0.14     53.16     70.10    7.6130 RG_DN64              STMMH05138          
  15570-A--21273             0.07     32.49     16.10   42.3810 RG_DN64              STMMH04310          
  15625-1--9497              0.28     84.00     82.80    5.3350 RG_VN52              STMMH04260          
  15642-A--19480             0.08     33.41     28.20    5.6310 RG_VN52              STMMH07598          
  15642-B--19490             0.08     33.11     30.00    6.0370 RG_VN52              STMMH07598          
  15643-C--9642              0.07     39.43     13.10    6.3200 RG_VN52              STMMH03140          
  15643-G--9643              0.07     35.38     48.80    6.1610 RG_VN52              STMMH03140          
  15643-H--19477             0.09     39.07     36.80    9.0110 RG_VN52              STMMH03140          
  15664-1--4512              0.07     35.95     48.90   11.0520 RG_DN64              STMMH04736          
  15664-2--4458              0.09     45.83     23.10   14.9360 RG_DN64              STMMH04735          
  15686-26--9724             0.09     37.73     33.60   38.9730 RG_DN64              STMMH04285          
  15686-27--9739             0.10     42.53     22.90   48.9960 RG_DN64              STMMH04285          
  15686-28--9740             0.08     39.26     30.50   42.2280 RG_DN64              STMMH04285          
  15686-29--9748             0.07     32.50     41.70   33.6780 RG_DN64              STMMH04286          
  15686-30--9749             0.09     38.57     24.20   31.5110 RG_DN64              STMMH04286          
  15686-31--9723             0.14     52.09      1.90   21.6210 RG_DN64              STMMH04286          
  15686-32--4670             0.19     44.04      4.00   51.0010 RG_DN64              STMMH04290          
  15686-33--4744             0.14     35.71     11.00   46.0140 RG_DN64              DUMMH02056          
  15686-34--9721             0.13     58.34      8.60   49.9700 RG_DN64              STMMH04287          
  15686-35--9722             0.12     47.97     16.80   45.9540 RG_DN64              STMMH04287          
  15686-36--9747             0.09     47.35     18.70   21.6160 RG_DN64              STMMH04286          
  15686-37--9757             0.07     36.17     37.30   15.5800 RG_DN64              STMMH04285          
  15761-A--9727              0.06     35.58     16.20    7.8400 RG_DN64              STMMH04264          
  15784-G--9785              0.07     44.72     44.50   10.5750 RG_DN64              STMMH04299          
  15869-1--9815              0.09     43.75     38.70   19.3500 RG_DN64              STMMH04294          
  15869-2--9795              0.08     38.73      0.00   12.6570 RG_DN64              STMMH04294          
  15869-3--9786              0.09     34.44     42.80   12.5900 RG_DN64              STMMH04294          
  15869-4--4699              0.08     35.31     48.10   16.9540 RG_DN64              STMMH04294          
  15886-A--19734             0.07     34.31     23.40   65.5130 RG_DN64              STMMH04291          
  15886-B--9738              0.32     66.96      0.40   51.5390 RG_DN64              STMMH04291          
  15886-C--9737              0.24     55.51      1.20   56.9850 RG_DN64              STMMH04286          
  15891-A--4183              0.15     53.60     13.40   16.6180 RG_DN64              STMMH05018          
  15891-B--4345              0.13     46.26     25.90   27.7770 RG_DN64              STMMH05018          
  15891-C--4343              0.13     43.32     10.50   35.8450 RG_DN64              STMMH05018          
  1596-2044--4671            1.50     60.10     43.90   10.5950 RG_DN64              STMMH04298          
  1596-676--4438             0.13     56.60     36.60   15.8470 RG_DN64              STMMH04727          
  1596-676--4439             0.47     58.73     25.30   24.3550 RG_DN64              DUMMH5804           
  1596-676--4441             0.11     55.87     48.70   32.3990 RG_DN64              DUMMH00610          
  1596-676--4452             0.29     47.01     62.40    4.6730 RG_DN64              STMMH04736          
  1596-676--4504             0.21     50.62     15.10   10.4080 RG_DN64              STMMH04734          
  1596-676--4519             0.10     35.72     67.50    5.4660 RG_DN64              STMMH04737          
  1596-676--4664             0.01      9.23     36.60    4.8350 RG_DN64              STMMH04735          
  1596-676--4675             0.28     53.65     74.70    3.4500 RG_DN64              STMMH04740          
  1596-676--4701             0.07     41.07     17.80   16.0830 RG_DN64              DUMMH6714           
  1596-778--4487             0.43     75.84      0.00   46.3180 RG_DN64              DUMMH6044           
  1596-791--4525             0.09     36.94     96.80    3.5400 RG_DN64              STMMH04719          
  16100-A--21275             0.07     33.08     68.10   23.2120 RG_DN64              STMMH04310          
  16100-B--14763             0.42     71.68     13.60   56.5400 RG_DN64              STMMH04310          
  16100-C--21279             0.06     32.12     52.60    8.6970 RG_DN64              STMMH04310          
  16-2536-42--9852           0.03     19.24      6.30   20.1810 RG_DN64              STMMH07334          
  16-2536-43--19737          0.03     18.94      0.00   21.2950 RG_DN64              STMMH07334          
  16-2536-44--19708          0.04     19.73      0.00   19.2040 RG_DN64              STMMH07334          
  16-2536-45--19707          0.03     19.77      0.00   16.7550 RG_DN64              STMMH07334          
  16-2536-46--19705          0.04     22.42      0.00   12.3920 RG_DN64              STMMH07334          
  16372-A--9519              0.46     92.25     12.80    6.4400 RG_DN64              STMMH04231          
  16372-B--4161              0.28     70.01     19.90    6.5990 RG_DN64              DUMMH00578          
  16428-B--4059              0.61    135.14     85.50    5.1380 RG_VN52              STMMH04253          
  1-6477-A--4473             0.30     68.39     16.60    9.1870 RG_DN64              DUMMH00596          
  1-6477-B--4472             0.30     76.34     22.20    5.4820 RG_DN64              STMMH04738          
  1-6477-C--4451             0.30     64.48     26.00    7.0140 RG_DN64              STMMH04740          
  1-6477-D--4463             0.30     67.42      9.80    6.9010 RG_DN64              DUMMH03036          
  16486-1--4461              3.62    354.07     13.30    6.7660 RG_VN52              DUMMH5768           
  16486-1--4691              0.32     83.20     72.20    4.0520 RG_VN52              STMMH07345          
  16486-2--9883              0.06     27.95      8.10    7.5610 RG_VN52              DUMMH5768           
  16486-3--4692              0.06     30.82     12.50   10.4790 RG_DN64              DUMMH5768           
  16486-5--9713              0.05     35.75     34.60    9.5630 RG_DN64              DUMMH5768           
  16655-1--4489              0.12     43.85      4.80   15.0440 RG_DN64              STMMH04302          
  16722-B--19568             0.03     16.14     61.30    4.8420 RG_VN52              STMMH02016          
  1-6889-A--4471             0.25     46.85     21.70    6.6630 RG_DN64              DUMMH03036          
  1-6889-B--4524             0.25     45.85     22.10    5.8640 RG_DN64              DUMMH03036          
  16945-10--4518             0.07     35.75     40.50   37.6960 RG_DN64              STMMH04730          
  16945-11--4678             0.06     32.06     40.90   37.1950 RG_DN64              STMMH04730          
  16945-12--4666             0.07     32.93     50.80   33.7140 RG_DN64              DUMMH00624          
  16945-13--4679             0.07     32.45     48.80   33.6350 RG_DN64              DUMMH00621          
  16945-14--4667             0.07     33.19     58.20   18.5040 RG_DN64              STMMH04728          
  16945-15--4505             0.07     32.71     42.00    9.7130 RG_DN64              STMMH04728          
  16945-16--9870             0.07     35.85     52.80   12.1620 RG_DN64              DUMMH00620          
  16945-8--4517              0.06     34.84     37.30   35.0380 RG_DN64              STMMH04733          
  16945-8--4682              0.00      8.36     55.60   30.5790 RG_DN64              STMMH04733          
  16945-9--4681              0.07     35.77     46.20   34.4270 RG_DN64              STMMH04733          
  16945-A--19687             0.09     33.40     50.80    9.5260 RG_DN64              STMMH04724          
  17-13923-13--4747          0.05     26.45     25.30    4.9460 RG_DN64              STMMH04738          
  17-13923-L--4663           0.04     23.64     57.70    5.8610 RG_DN64              STMMH04738          
  17235-D--19593             0.04     21.40     69.40    5.5760 RG_VN52              STMMH02023          
  17235-E--19639             0.04     19.73     76.50    4.2740 RG_VN52              STMMH02023          
  17-2536-47--19819          0.03     22.87      0.00   11.5000 RG_DN64              DUMMH02061          
  17-2536-48--19818          0.04     25.33      0.00   13.7160 RG_DN64              DUMMH02061          
  17254-J--4405              0.05     30.75     37.80   19.9920 RG_DN64              STMMH03308          
  17254-K--19464             0.05     30.64     38.10   42.1270 RG_DN64              DUMMH6294           
  17275-A--4693              0.08     27.51     26.80    8.2110 RG_VN52              DUMMH5768           
  17275-B--9882              0.15     49.15     67.20   13.3050 RG_DN64              STMMH05123          
  17280-H--4407              0.06     30.80     30.40   42.1960 RG_DN64              DUMMH6294           
  17280-I--9587              0.06     30.67     45.20    5.7630 RG_DN64              STMMH05004          
  17-2875-17--9905           0.03     19.51     73.70   13.2650 RG_DN64              STMMH04738          
  17-2875-18--4677           0.04     19.39     61.80   15.4230 RG_DN64              STMMH04738          
  17-2875-19--9903           0.04     21.30     66.20    8.2020 RG_DN64              STMMH04738          
  17-2875-20--9902           0.04     19.63     47.10    5.8920 RG_DN64              STMMH04738          
  17-2875-C--9904            0.05     31.82     63.60    4.2470 RG_DN64              STMMH04738          
  17303-G--19590             0.04     19.18     75.70    6.0370 RG_VN52              STMMH02023          
  17303-H--19631             0.04     19.17     77.40    4.7830 RG_VN52              STMMH02023          
  17491-D--4282              0.11     47.28     86.20    3.6290 RG_VN52              STMMH01964          
  17739-B--19437             0.05     30.34     56.70   24.3990 RG_DN64              DUMMH00594          
  17739-C--21136             0.05     27.56     66.50   22.9850 RG_DN64              DUMMH00598          
  17743-C--4703              0.06     30.24     61.40   11.9740 RG_DN64              STMMH04293          
  17743-D--4500              0.10     44.79     23.10   20.5620 RG_DN64              DUMMH6268           
  17801-5--3995              0.31     56.49     82.80    3.7200 RG_VN52              STMMH04256          
  17962-1--4086              0.11     51.35     30.20   12.0510 RG_DN64              DUMMH6715           
  17962-2--4117              0.13     56.45     36.40   14.2720 RG_DN64              DUMMH6715           
  17962-3--4332              0.12     52.14     30.60    9.8260 RG_DN64              STMMH05023          
  17962-4--4195              0.12     45.39     45.00   13.2200 RG_DN64              STMMH05023          
  17962-5--9610              0.11     46.18     30.40    4.0760 RG_DN64              STMMH05019          
  17962-6--4344              0.11     47.42     24.20    9.0200 RG_DN64              DUMMH00602          
  18006-C--9678              0.12     45.70     81.10    5.9900 RG_VN52              STMMH02012          
  18006-D--19549             0.09     37.08     87.10    4.9920 RG_VN52              STMMH07290          
  18054-10--4196             0.11     50.37     28.10   10.4970 RG_DN64              STMMH05018          
  18054-11--4111             0.19     66.97      5.80   21.4440 RG_DN64              STMMH05018          
  18054-12--4102             0.12     50.11     24.30   34.1820 RG_DN64              STMMH05018          
  18054-7--4179              0.12     49.22     35.00    4.0920 RG_DN64              STMMH05019          
  18054-8--4116              0.15     46.64     21.60   11.6660 RG_DN64              DUMMH6759           
  18054-9--4104              0.15     54.84     22.90   13.4320 RG_DN64              DUMMH6759           
  18091-B--4725              0.07     32.01     17.50   17.3900 RG_DN64              STMMH04308          
  18-1587-1--9475            0.02     14.46     91.80    2.3470 RG_VN52              STMMH05126          
  18-1587-1--9877            0.01      9.09     95.90    4.9300 RG_VN52              STMMH05126          
  18-1587-2--4084            0.02     16.62     98.80    3.3130 RG_VN52              STMMH05126          
  18-1587-2--9915            0.01     11.61     83.20    4.6050 RG_VN52              STMMH05126          
  18-1587-3--9473            0.02     17.71     95.10    3.1070 RG_VN52              STMMH05163          
  18-1587-3--9879            0.01     13.53    100.00    3.9190 RG_VN52              STMMH05126          
  18-1587-4--9500            0.02     17.28     99.00    5.6940 RG_VN52              STMMH05163          
  18-1587-4--9912            0.01     12.80    100.00    6.3950 RG_VN52              STMMH05126          
  18-17174-F--4753           0.05     25.72     97.40    3.4520 RG_VN52              STMMH07551          
  18208-F--4038              0.21     69.48     94.20    4.8990 RG_VN52              STMMH04263          
  18-2536-D--19821           0.07     35.23     29.30    6.7290 RG_DN64              STMMH04298          
  18264-1--4033              0.12     46.17     89.70    4.3360 RG_VN52              STMMH04253          
  18264-2--9481              0.11     47.95     92.90    6.0630 RG_VN52              STMMH04262          
  18283-1--19434             0.05     30.48     30.40   19.7800 RG_DN64              DUMMH00598          
  18283-2--19435             0.05     27.96     33.30   21.9650 RG_DN64              DUMMH00598          
  18318-I--19598             0.04     20.11     68.00    3.8410 RG_VN52              STMMH02017          
  18318-J--19622             0.04     19.52     60.90    4.7300 RG_VN52              STMMH02017          
  18363-1--4724              0.07     31.69     36.00   14.8860 RG_DN64              STMMH04308          
  18448-E--14752             2.44    218.77     35.30   21.5560 RG_DN64              DUMMH00577          
  18448-E--19454             0.13     48.35     52.70   28.3950 RG_DN64              STMMH03320          
  18448-E--19494             0.35     90.31     57.60    8.6300 RG_DN64              DUMMH00570          
  18448-E--19495             0.29     86.82     65.70    7.6450 RG_DN64              STMMH03316          
  18448-E--19556             0.16     47.50     40.30   14.0000 RG_DN64              STMMH03310          
  18448-E--4434              0.70    118.33      9.80   11.1350 RG_DN64              STMMH03313          
  18448-E--9595              0.38     93.88     34.20   17.5370 RG_DN64              STMMH03318          
  18448-E--9596              0.40    100.84     54.70    4.6460 RG_DN64              STMMH03317          
  18448-E--9597              3.19    296.87     54.90   15.0080 RG_DN64              STMMH03315          
  18448-E--9598              0.51    115.01     71.50    4.9130 RG_DN64              STMMH03322          
  18448-E--9682              0.91    133.66     67.60    8.9130 RG_DN64              STMMH03315          
  18448-E--9686              0.31     69.34     63.90   12.4130 RG_DN64              STMMH03310          
  18448-E--9688              1.17    160.37      7.30   15.7260 RG_DN64              STMMH03311          
  18574-C--4375              0.14     59.78     96.80    3.3350 RG_VN52              DUMMH00398          
  18598-F--19653             0.04     18.87     66.00    6.8700 RG_VN52              STMMH02023          
  18598-G--21188             0.04     20.21     49.00    4.8360 RG_VN52              STMMH02024          
  18621-10--21201            0.04     22.84     62.30    5.8500 RG_VN52              STMMH02035          
  18621-11--21183            0.04     25.54     68.00    4.5170 RG_VN52              STMMH02035          
  18621-1--21240             0.04     24.11     60.30    4.6520 RG_VN52              DUMMH00393          
  18621-12--21199            0.04     26.33     40.60    5.8950 RG_VN52              STMMH02035          
  18621-13--21153            0.09     47.80      5.90   10.8020 RG_VN52              STMMH02035          
  18621-14--21200            0.04     23.52     47.10    4.7070 RG_VN52              STMMH02035          
  18621-15--21234            0.04     23.46     57.00    4.5010 RG_VN52              STMMH02035          
  18621-16--21235            0.04     22.83     54.90    4.2220 RG_VN52              STMMH02034          
  18621-17--21237            0.04     23.15     54.80    4.0200 RG_VN52              STMMH02034          
  18621-18--21242            0.04     22.79     56.70    3.2020 RG_VN52              STMMH02034          
  18621-19--21251            0.04     22.60     55.10    4.6180 RG_VN52              STMMH02034          
  18621-20--21245            0.04     22.43     46.70    4.3770 RG_VN52              STMMH02034          
  18621-21--21244            0.04     22.24     62.40    4.3160 RG_VN52              STMMH02034          
  18621-2--21249             0.04     22.75     68.80    4.1020 RG_VN52              DUMMH00393          
  18621-22--21181            0.04     26.01     59.20    3.0790 RG_VN52              STMMH02028          
  18621-3--21219             0.04     22.54     52.50    4.0490 RG_VN52              STMMH02034          
  18621-4--21241             0.04     22.85     69.10    3.7480 RG_VN52              STMMH02034          
  18621-5--21208             0.04     23.46     76.30    6.1710 RG_VN52              STMMH02034          
  18621-6--21174             0.04     23.23     60.70    3.8230 RG_VN52              STMMH02034          
  18621-7--21180             0.04     23.16     50.50    5.2480 RG_VN52              STMMH02035          
  18621-8--21198             0.04     22.47     48.20    4.5230 RG_VN52              STMMH02035          
  18621-9--21184             0.04     22.58     59.70    5.3310 RG_VN52              STMMH02035          
  18681-F--4298              0.08     35.55     91.10    2.2870 RG_VN52              DUMMH02004          
  18773-5--4496              0.07     41.89     36.40   27.2300 RG_DN64              STMMH04264          
  18773-6--4559              0.10     44.26     24.60   24.9820 RG_DN64              STMMH04264          
  18808-A--19591             0.05     21.72     62.10    5.2910 RG_VN52              STMMH02012          
  18808-B--19573             0.05     23.79     55.40    3.1690 RG_VN52              STMMH02011          
  18886-C--9535              0.04     19.37     79.90    3.8920 RG_VN52              STMMH07291          
  18886-D--9537              0.04     18.92     78.20    3.8590 RG_VN52              STMMH07291          
  1-8972-10--19746           0.07     36.52     29.50   12.1850 RG_DN64              STMMH04270          
  1-8972-11--9742            0.07     36.77     38.90    7.8780 RG_DN64              STMMH04266          
  1-8972-12--9774            0.07     36.56     48.30    7.4010 RG_DN64              STMMH04269          
  1-8972-13--9773            0.07     33.81     34.90    5.8900 RG_DN64              STMMH04269          
  1-8972-1--9779             0.09     47.72     30.00    6.5640 RG_DN64              STMMH04276          
  1-8972-2--9778             0.07     37.15     19.70    6.4300 RG_DN64              STMMH04276          
  1-8972-3--19750            0.07     37.77     18.70    6.2280 RG_DN64              STMMH04276          
  1-8972-4--9781             0.07     37.76     12.00    7.4410 RG_DN64              STMMH04277          
  1-8972-5--9777             0.07     37.88     13.90    6.1920 RG_DN64              STMMH04277          
  1-8972-6--9776             0.08     38.32     19.80    7.1520 RG_DN64              STMMH04278          
  1-8972-7--9780             0.07     37.82     27.50    6.8750 RG_DN64              STMMH04278          
  1-8972-8--9775             0.07     36.02     30.20    8.1870 RG_DN64              STMMH04270          
  1-8972-9--9734             0.07     36.45     45.30    9.4500 RG_DN64              STMMH04270          
  18-EPP26260-AREM--4065       0.23     79.30     91.10    2.6710 RG_VN52              STMMH05161          
  19-2076-19--21272          0.47     81.15      0.00   58.4480 RG_DN64              STMMH04310          
  19-2377-15--4430           0.11     43.73     29.70    5.5160 RG_DN64              STMMH04230          
  19-2377-16--4422           0.08     40.38     34.70    6.6710 RG_DN64              STMMH04231          
  19-2377-17--9522           0.06     35.69     28.10   14.1210 RG_DN64              STMMH03330          
  1-9336-7--9917             0.01     14.85    100.00    1.5230 RG_DN64              STMMH05117          
  1-9344-6--9923             0.02     15.90    100.00    1.8590 RG_DN64              STMMH05117          
  19464-1--4271              0.74    148.85     92.20    6.0160 RG_VN52              STMMH01979          
  19595-2--4491              0.11     46.67     50.10   13.0270 RG_DN64              STMMH04302          
  19835-A--19586             0.04     25.20     60.90    5.4830 RG_VN52              STMMH02022          
  19835-B--21246             0.04     22.14     61.40    4.1790 RG_VN52              STMMH02022          
  19835-C--21176             0.04     22.50     53.20    3.7750 RG_VN52              STMMH02031          
  19835-D--21243             0.04     22.48     63.90    5.3060 RG_VN52              STMMH02031          
  19835-E--21221             0.04     22.11     78.50    5.7360 RG_VN52              STMMH02031          
  19835-F--21236             0.04     22.78     64.20    5.8960 RG_VN52              STMMH02031          
  19835-G--21167             0.04     22.22     60.40    6.0730 RG_VN52              STMMH02031          
  19835-H--21171             0.04     22.66     58.80    6.6780 RG_VN52              STMMH02031          
  19835-I--21165             0.04     22.15     48.10    6.2550 RG_VN52              STMMH02030          
  19835-J--21166             0.04     22.98     57.70    7.6570 RG_VN52              STMMH02030          
  19835-K--21168             0.04     22.04     49.30    9.0250 RG_VN52              STMMH02030          
  19835-L--21152             0.04     24.47     59.80    5.3240 RG_VN52              STMMH02030          
  19835-M--19577             0.03     24.74     40.30    4.6880 RG_VN52              STMMH03343          
  19835-M--19580             0.03     24.80     27.60    6.7110 RG_VN52              STMMH02030          
  19859-1--4399              0.11     44.23     38.90    8.7830 RG_DN64              DUMMH6305           
  19859-2--4401              0.11     45.24     32.00    6.3680 RG_DN64              DUMMH00607          
  19859-3--9607              0.12     48.31     51.10   13.2450 RG_DN64              DUMMH00604          
  19859-4--19551             0.11     46.86     29.50    9.0580 RG_DN64              DUMMH00604          
  19859-5--9608              0.11     40.97     22.00    7.6460 RG_DN64              STMMH05016          
  19859-6--19552             0.11     44.67     19.50   11.2600 RG_DN64              STMMH05016          
  19859-7--19553             0.11     48.37     19.80   22.0410 RG_DN64              STMMH05016          
  1-BCP12607-A--4684         0.11     44.79     65.50    4.1260 RG_DN64              DUMMH00583          
  1-T-642--4237              0.53     92.35      0.00   11.8040 RG_VN52              STMMH02107          
  200072-B--19496            0.25     71.08     74.10    4.6010 RG_VN52              STMMH02078          
  20033-10--4189             0.15     61.10     32.00    7.1830 RG_DN64              DUMMH00603          
  20033-8--4335              0.12     49.15     38.50    8.0460 RG_DN64              DUMMH00603          
  20033-9--4191              0.11     47.36     47.60    5.2220 RG_DN64              DUMMH00603          
  20080-G--9499              0.13     56.21     42.00    5.4480 RG_VN52              STMMH05163          
  20080-H--9472              0.56    113.24     68.70    6.2910 RG_VN52              STMMH05163          
  20140-1--9804              0.07     34.91     28.20    6.0150 RG_DN64              STMMH04298          
  20140-2--9842              0.07     35.57     49.00    7.1630 RG_DN64              STMMH04298          
  20197-B--4368              0.18     53.36     96.10    3.9050 RG_VN52              STMMH01978          
  20-2076-20--14762          0.46     81.59      5.30   57.2270 RG_DN64              STMMH04310          
  20218-3--19694             0.07     34.16     27.70    6.0920 RG_DN64              STMMH04310          
  20218-4--19730             0.07     31.46     46.40    7.4000 RG_DN64              STMMH04310          
  20218-5--19706             0.07     31.56     40.80   18.0260 RG_DN64              STMMH04310          
  20218-G--19712             0.18     59.45     10.40   43.0310 RG_DN64              STMMH04310          
  20242-1--4019              0.10     39.56     77.70    5.2810 RG_VN52              STMMH04253          
  20338-G--19671             0.13     49.99     59.60   21.9490 RG_VN52              STMMH02123          
  20338-G--9520              0.33     89.48      0.10   48.9730 RG_DN64              STMMH04232          
  20442-D--19604             0.08     44.68     59.30    6.8650 RG_VN52              STMMH03341          
  20442-E--19533             0.07     35.71     37.20    6.4920 RG_VN52              STMMH02078          
  20442-F--19529             0.08     32.28     50.10    5.0800 RG_VN52              STMMH03341          
  20442-FN--19602            0.12     45.87     30.40    5.3610 RG_VN52              STMMH03341          
  20630-C--21223             0.04     28.07     67.80    3.1050 RG_VN52              STMMH02029          
  20696-17--4561             6.06    429.80      0.00   29.1290 RG_DN64              DUMMH00623          
  20696-17--4668             0.04     24.59      5.30   10.6030 RG_DN64              DUMMH6877           
  20-7353-1--9507            0.26     79.84     92.00    7.4710 RG_DN64              STMMH05165          
  20-7353-2--4082            0.22     57.24     90.90    7.0070 RG_DN64              STMMH05164          
  20820-1--9547              0.14     51.70     19.30    7.6100 RG_DN64              STMMH05012          
  20820-2--4400              0.12     46.55     51.90    6.2980 RG_DN64              DUMMH6305           
  20869-N--21197             0.07     29.23     57.80    9.3320 RG_VN52              STMMH03341          
  20869-O--21159             0.07     27.68     56.50    8.1940 RG_VN52              STMMH03341          
  21031-2--4003              1.26    162.12     98.30    3.5010 RG_VN52              STMMH05284          
  21031-3--4043              0.82    115.86     98.60    4.2850 RG_VN52              STMMH04236          
  21-11197--9627             0.01      7.09      0.60    9.7010 RG_VN52              STMMH03264          
  2-12907-8--9695            0.42     68.92     94.10    3.5550 RG_VN52              STMMH07296          
  21324-1--21282             0.06     34.99     48.20   15.1380 RG_DN64              STMMH04310          
  21324-2--21277             0.21     33.90     23.90   50.4400 RG_DN64              STMMH07334          
  21324-3--21276             0.21     34.78     24.30   51.4610 RG_DN64              STMMH07334          
  21324-4--14764             0.06     33.32     62.00   16.6510 RG_DN64              STMMH07334          
  21330-1--19672             0.08     38.89     37.80    4.1740 RG_DN64              STMMH03298          
  21361-2--21146             0.08     39.35     45.80    6.7120 RG_DN64              STMMH03333          
  21439-13--21145            0.07     36.62     48.00    5.2560 RG_DN64              STMMH03333          
  21439-14--9707             0.23     43.80     20.30   40.1710 RG_DN64              STMMH03297          
  2-1472-10--4241            0.05     29.01      0.00   11.0840 RG_VN52              STMMH02106          
  2-1472-11--4390            0.05     28.92      0.00   13.1680 RG_VN52              STMMH02106          
  2-1472-12--4392            0.04     28.36      0.00    7.9920 RG_VN52              STMMH02106          
  2-1472-7--4239             0.05     28.85      0.00   12.8580 RG_VN52              DUMMH00554          
  2-1472-8--9577             0.05     29.48      0.00    9.7600 RG_VN52              DUMMH00554          
  2-1472-9--9576             0.05     28.59      0.00   11.4450 RG_VN52              STMMH02106          
  21502-11--9709             0.06     30.28      3.50    4.7130 RG_DN64              STMMH03299          
  21502-12--9712             0.05     28.19     26.60    3.2730 RG_DN64              STMMH03298          
  21502-6--21193             0.04     25.16      0.00   74.2670 RG_DN64              DUMMH00563          
  21502-6--21248             0.06     28.51     49.60   31.1430 RG_DN64              STMMH03297          
  21502-7--19675             0.04     26.19      0.00   73.4460 RG_DN64              DUMMH00563          
  21502-7--21150             0.06     27.55     54.20   30.8600 RG_DN64              STMMH03297          
  21513-1--4346              0.15     59.37     11.60    8.6170 RG_DN64              STMMH05023          
  21513-2--4173              0.10     43.69      0.00   11.8020 RG_DN64              STMMH05023          
  21513-2--9609              0.00      3.88      0.00    9.8360 RG_DN64              STMMH05023          
  21552-24--4680             2.22    193.40      0.00   43.5760 RG_DN64              DUMMH00623          
  21687-15--21142            0.06     36.82     33.30    3.5840 RG_DN64              STMMH03297          
  21687-16--21140            0.04     24.29      0.00   76.2540 RG_DN64              STMMH03297          
  21687-16--21194            0.07     27.92     41.50   26.4910 RG_DN64              STMMH03297          
  21687-17--21149            0.04     25.24      0.00   79.1580 RG_DN64              DUMMH00563          
  21687-17--21195            0.06     27.91     42.50   32.4280 RG_DN64              STMMH03297          
  21687-18--21148            0.04     25.20      0.00   73.1850 RG_DN64              DUMMH00563          
  21687-18--21151            0.06     28.54     49.10   28.5300 RG_DN64              DUMMH00568          
  21687-19--19674            0.07     30.84     21.40   28.9200 RG_DN64              STMMH04232          
  21687-19--21147            0.04     26.40      0.00   64.4510 RG_DN64              DUMMH00563          
  21687-20--19676            0.06     35.26     36.50    4.9390 RG_DN64              STMMH03297          
  21687-PK--19673            0.06     20.71      0.00   30.8590 RG_DN64              STMMH04233          
  21-7099--19555             0.01      6.59     56.30   14.8780 RG_VN52              STMMH03241          
  21868-1--19686             0.24     41.08     14.10   44.9740 RG_DN64              STMMH04724          
  21868-2--9872              0.31     52.88      8.20   47.3070 RG_DN64              STMMH04724          
  22043-1--9783              0.09     34.06     11.60   31.2310 RG_DN64              DUMMH02420          
  22043-2--4746              0.09     34.89      1.20   31.1730 RG_DN64              DUMMH6267           
  22043-3--4745              0.11     37.34     30.00   21.9040 RG_DN64              DUMMH6267           
  2208-A--4482               0.86     73.43     45.10   20.4940 RG_DN64              DUMMH6402           
  22098-D--9470              0.14     50.62     90.90    5.3610 RG_VN52              STMMH04256          
  22104-J--4099              0.13     56.02     12.90    8.5410 RG_DN64              STMMH05011          
  22104-K--4131              0.14     61.38     60.80   10.3320 RG_DN64              STMMH05011          
  22104-L--4135              0.15     60.25     35.10    9.0210 RG_DN64              DUMMH6698           
  22118-L--19462             0.08     39.73     24.40   45.6040 RG_DN64              STMMH05006          
  22118-M--4337              0.10     46.83     30.10   17.8260 RG_DN64              STMMH03307          
  22-2377-20A--9601          0.01      9.14      0.00   14.5210 RG_DN64              STMMH07548          
  22316-1--19757             0.09     38.36     43.30   13.2530 RG_DN64              STMMH04696          
  22316-2--19766             0.09     37.80     32.40   15.1220 RG_DN64              STMMH04696          
  22661-A--4757              0.07     35.43     37.60   23.8560 RG_DN64              STMMH04265          
  22661-B--9714              0.04     21.48      7.90   43.2210 RG_DN64              STMMH04265          
  22804-G--4299              0.07     35.42    100.00    2.9350 RG_VN52              STMMH01971          
  22873-A--4386              0.12     57.84     93.00    4.6790 RG_VN52              STMMH01984          
  22948-H--4152              0.08     30.51     40.10    4.8890 RG_DN64              STMMH03332          
  22948-J--4149              0.08     28.60     49.80    5.8590 RG_DN64              STMMH03332          
  23-2076-A--19725           0.41     74.30     16.00   51.1820 RG_DN64              STMMH07334          
  2-3384-1--9694             0.02     14.77     96.20    2.4510 RG_VN52              STMMH02112          
  2-3384-2--4199             0.11     19.70     58.00   23.9210 RG_VN52              DUMMH6649           
  2-3384-3--4254             0.60     75.42     47.70   30.7840 RG_VN52              DUMMH6652           
  2-3772--4198               0.34     67.78     59.00    3.5030 RG_VN52              DUMMH6652           
  2-4734-1--9564             5.85    401.27     49.60    8.1720 RG_VN52              DUMMH6860           
  2-4835--4220               0.14     31.65     32.30   21.7430 RG_VN52              STMMH01986          
  24-9480-A--9798            0.40     70.83     17.20   58.1900 RG_DN64              STMMH04311          
  24-9480-B--9796            0.31     54.52     15.70   58.3880 RG_DN64              DUMMH02062          
  24-9480-D--19831           0.07     36.78     36.50    8.8890 RG_DN64              STMMH04311          
  25-12011-22--19562         0.01     10.09     85.30    8.5250 RG_VN52              STMMH01996          
  25-12011-23--4362          0.00      4.63    100.00    4.4280 RG_VN52              STMMH01996          
  25-12011-D--4360           0.03     16.03     58.30    9.8110 RG_VN52              STMMH02014          
  2-5131--9531               0.14     44.05     42.60   26.6100 RG_VN52              DUMMH6651           
  2-5132--4217               0.07     19.46      9.80   28.0140 RG_VN52              DUMMH6651           
  2-5296--9530               0.08     19.80     34.90   20.1260 RG_VN52              DUMMH6644           
  25-9480-C--19832           0.31     53.97     10.80   51.0390 RG_DN64              DUMMH02062          
  26-1340-8--4351            0.04     19.43     91.30    5.2050 RG_VN52              STMMH01996          
  26-1340-A--4376            0.07     34.94    100.00    4.8500 RG_VN52              STMMH01989          
  26-1340-B--4353            0.07     35.33    100.00    4.4840 RG_VN52              STMMH01990          
  26-1340-C--14753           0.09     41.01    100.00    4.2210 RG_VN52              STMMH01989          
  27-1340-C--4208            0.15     51.95     84.40    5.5450 RG_VN52              STMMH01984          
  27-1340-D--4267            0.14     50.53     98.10    3.4700 RG_VN52              STMMH01984          
  2-7425-E--9509             0.36     94.97     56.80    4.0760 RG_DN64              STMMH05133          
  2-7425-F--19425            0.31     87.06     56.60    6.0030 RG_DN64              STMMH05136          
  2-7636-A--4498             0.09     34.95      2.30   13.1250 RG_VN52              DUMMH6657           
  27-8946-C--9871            0.76    123.93      1.70   44.0520 RG_DN64              STMMH04724          
  28-1472-6--9573            0.00      4.50      0.00   19.9990 RG_VN52              DUMMH00554          
  28-9635-21--4274           0.00      4.45    100.00    5.6190 RG_VN52              STMMH01977          
  2-8972-10--9765            0.09     36.72     33.40   14.9710 RG_DN64              STMMH04277          
  2-8972-11--19747           0.10     41.38     29.90   28.5740 RG_DN64              STMMH04278          
  2-8972-12--19748           0.07     35.10     39.80   22.7700 RG_DN64              STMMH04278          
  2-8972-13--9733            0.07     35.04     45.80   20.0440 RG_DN64              STMMH04278          
  2-8972-14--9766            0.08     39.55     45.30   17.3360 RG_DN64              DUMMH6824           
  2-8972-3--9732             0.08     35.58     29.10   19.4440 RG_DN64              STMMH04276          
  2-8972-4--9844             0.08     33.59     39.10   16.4940 RG_DN64              STMMH04276          
  2-8972-5--9763             0.08     33.61     23.20   15.5560 RG_DN64              STMMH04276          
  2-8972-6--19749            0.08     33.61     22.20   16.5090 RG_DN64              STMMH04277          
  2-8972-7--9767             0.08     33.61     29.20   19.9830 RG_DN64              STMMH04277          
  2-8972-8--9768             0.08     33.57     33.80   20.1380 RG_DN64              STMMH04277          
  2-8972-9--9764             0.11     46.12     26.20   22.6450 RG_DN64              STMMH04277          
  28-RP9470-19--4370         0.00      4.32    100.00   21.9460 RG_VN52              DUMMH6932           
  28-RP9470-19--4371         0.00      7.12     90.90   58.4470 RG_VN52              DUMMH6932           
  28-RP9470-2--19563         0.01      5.68     12.50   52.9650 RG_VN52              DUMMH6932           
  28-RP9470-2--19569         0.02      7.29     12.30   51.7010 RG_VN52              DUMMH6932           
  2-9212-F--19424            0.05     15.74     62.70    4.9970 RG_DN64              STMMH05136          
  2-T-642A--4240             0.20     78.81      0.00   10.4890 RG_VN52              STMMH02106          
  2-T-642A--9574             0.02     13.27      0.00   12.9790 RG_VN52              DUMMH00554          
[...]
  STMMN05920       CIRCULAR             0.25     0.05     0.06     0.25        1     0.07
  STMMN05921       CIRCULAR             0.25     0.05     0.06     0.25        1     0.06
  STMMN05922       CIRCULAR             0.30     0.07     0.07     0.30        1     0.09
  STMMN05923       CIRCULAR             0.25     0.05     0.06     0.25        1     0.06
  STMMN05924       CIRCULAR             0.38     0.11     0.09     0.38        1     0.14
  STMMN05925       CIRCULAR             0.38     0.11     0.09     0.38        1     0.22
  STMMN05926       CIRCULAR             0.38     0.11     0.09     0.38        1     0.09
  STMMN05927       CIRCULAR             0.38     0.11     0.09     0.38        1     0.10
  STMMN05928       CIRCULAR             0.38     0.11     0.09     0.38        1     0.12
  STMMN05929       CIRCULAR             0.53     0.22     0.13     0.53        1     0.35
  STMMN05930       CIRCULAR             0.20     0.03     0.05     0.20        1     0.04
  STMMN05931       CIRCULAR             0.45     0.16     0.11     0.45        1     0.22
  STMMN05932       CIRCULAR             0.45     0.16     0.11     0.45        1     0.22
  STMMN05933       CIRCULAR             0.25     0.05     0.06     0.25        1     0.05
  STMMN05934       CIRCULAR             0.38     0.11     0.09     0.38        1     0.11
  STMMN05935       CIRCULAR             0.38     0.11     0.09     0.38        1     0.11
  STMMN05936       CIRCULAR             0.38     0.11     0.09     0.38        1     0.11
  STMMN05937       CIRCULAR             0.38     0.11     0.09     0.38        1     0.11
  STMMN05938       CIRCULAR             0.25     0.05     0.06     0.25        1     0.01
  STMMN05939       CIRCULAR             0.30     0.07     0.07     0.30        1     0.46
  STMMN05940       CIRCULAR             0.45     0.16     0.11     0.45        1     0.21
  STMMN05941       CIRCULAR             0.45     0.16     0.11     0.45        1     0.22
  STMMN05942       CIRCULAR             0.45     0.16     0.11     0.45        1     0.12
  STMMN05943       CIRCULAR             0.68     0.36     0.17     0.68        1     0.52
  STMMN05945       CIRCULAR             0.60     0.28     0.15     0.60        1     0.17
  STMMN05946       CIRCULAR             0.90     0.64     0.23     0.90        1     0.40
  STMMN05947       CIRCULAR             0.90     0.64     0.23     0.90        1     1.07
  STMMN05948       CIRCULAR             0.30     0.07     0.07     0.30        1     0.26
  STMMN05949       CIRCULAR             0.90     0.64     0.23     0.90        1     1.06
  STMMN05950       CIRCULAR             0.45     0.16     0.11     0.45        1     0.35
  STMMN05952       CIRCULAR             0.38     0.11     0.09     0.38        1     0.24
  STMMN05953       CIRCULAR             0.60     0.28     0.15     0.60        1     0.79
  STMMN05954       CIRCULAR             0.68     0.36     0.17     0.68        1     0.25
  STMMN05955       CIRCULAR             0.75     0.44     0.19     0.75        1     0.28
  STMMN05956       CIRCULAR             0.38     0.11     0.09     0.38        1     0.15
  STMMN05957       CIRCULAR             1.05     0.87     0.26     1.05        1     0.96
  STMMN05958       CIRCULAR             1.05     0.87     0.26     1.05        1     1.25
  STMMN05959       CIRCULAR             1.20     1.13     0.30     1.20        1     2.24
  STMMN05961       CIRCULAR             1.20     1.13     0.30     1.20        1     7.90
  STMMN05962       CIRCULAR             1.20     1.13     0.30     1.20        1     7.89
  STMMN05963       CIRCULAR             1.20     1.13     0.30     1.20        1     2.02
  STMMN05965       CIRCULAR             0.45     0.16     0.11     0.45        1     0.15
  STMMN05966       CIRCULAR             0.45     0.16     0.11     0.45        1     0.14
  STMMN05967       CIRCULAR             0.53     0.22     0.13     0.53        1     0.26
  STMMN05972       CIRCULAR             1.35     1.43     0.34     1.35        1     1.83
  STMMN05974       CIRCULAR             1.50     1.77     0.38     1.50        1     1.50
  STMMN05975       CIRCULAR             1.50     1.77     0.38     1.50        1     3.81
  STMMN05987       CIRCULAR             1.50     1.77     0.38     1.50        1     1.65
  STMMN05988       CIRCULAR             0.25     0.05     0.06     0.25        1     0.04
  STMMN05989       CIRCULAR             0.25     0.05     0.06     0.25        1     0.08
  STMMN05990       CIRCULAR             0.25     0.05     0.06     0.25        1     0.12
  STMMN05991       CIRCULAR             0.45     0.16     0.11     0.45        1     0.21
  STMMN05992       CIRCULAR             0.45     0.16     0.11     0.45        1     0.31
  STMMN06159       CIRCULAR             0.38     0.11     0.09     0.38        1     0.08
  STMMN06160       CIRCULAR             0.53     0.22     0.13     0.53        1     0.19
  STMMN06162       CIRCULAR             0.53     0.22     0.13     0.53        1     0.19
  STMMN06163       CIRCULAR             0.45     0.16     0.11     0.45        1     0.21
  STMMN06165       CIRCULAR             0.53     0.22     0.13     0.53        1     0.22
  STMMN07344       CIRCULAR             0.45     0.16     0.11     0.45        1     0.39
  STMMN07345       CIRCULAR             0.45     0.16     0.11     0.45        1     0.39
  STMMN08636       CIRCULAR             0.15     0.02     0.04     0.15        1     0.01
  STMMN08738       CIRCULAR             0.20     0.03     0.05     0.20        1     0.04
  STMMN08748       CIRCULAR             0.45     0.16     0.11     0.45        1     0.37
  STMMN08749       CIRCULAR             0.45     0.16     0.11     0.45        1     0.49
  STMMN08750       CIRCULAR             0.45     0.16     0.11     0.45        1     0.68
  STMMN08759       CIRCULAR             0.38     0.11     0.09     0.38        1     0.09
  STMMN08772       CIRCULAR             0.38     0.11     0.09     0.38        1     0.22
  STMMN08824       CIRCULAR             0.15     0.02     0.04     0.15        1     0.01
  STMMN08825       CIRCULAR             0.15     0.02     0.04     0.15        1     0.02
  STMMN08826       CIRCULAR             0.15     0.02     0.04     0.15        1     0.03
  STMMN08837       CIRCULAR             0.30     0.07     0.07     0.30        1     0.26
  STMMN08902       CIRCULAR             0.25     0.05     0.06     0.25        1     0.05
  STMMN08911       CIRCULAR             0.45     0.16     0.11     0.45        1     0.24
  STMMN08914       CIRCULAR             0.90     0.64     0.23     0.90        1     0.78
  STMMN08916       CIRCULAR             0.75     0.44     0.19     0.75        1     0.48
  STMMN08917       CIRCULAR             0.53     0.22     0.13     0.53        1     1.41
  STMMN08918       CIRCULAR             1.20     1.13     0.30     1.20        1     1.04
  STMMN08919       CIRCULAR             1.20     1.13     0.30     1.20        1     0.91
  STMMN08920       CIRCULAR             0.30     0.07     0.07     0.30        1     0.37
  STMMN08921       CIRCULAR             0.30     0.07     0.07     0.30        1     0.12
  STMMN08922       CIRCULAR             0.30     0.07     0.07     0.30        1     0.23
  STMMN08923       CIRCULAR             0.30     0.07     0.07     0.30        1     0.22
  STMMN08924       CIRCULAR             0.30     0.07     0.07     0.30        1     0.20
  STMMN08925       CIRCULAR             0.30     0.07     0.07     0.30        1     0.51
  STMMN08931       CIRCULAR             0.38     0.11     0.09     0.38        1     0.14
  STMMN08973       CIRCULAR             0.30     0.07     0.07     0.30        1     0.10
  STMMN08974       CIRCULAR             0.30     0.07     0.07     0.30        1     0.10
  STMMN08992       CIRCULAR             0.30     0.07     0.07     0.30        1     0.08
  STMMN08993       CIRCULAR             0.30     0.07     0.07     0.30        1     0.01
  STMMN08994       CIRCULAR             0.53     0.22     0.13     0.53        1     0.51
  STMMN08995       CIRCULAR             0.53     0.22     0.13     0.53        1     0.57
  STMMN09081       CIRCULAR             0.38     0.11     0.09     0.38        1     0.09
  STMMN09089       CIRCULAR             0.60     0.28     0.15     0.60        1     1.35
  STMMN09098       CIRCULAR             0.90     0.64     0.23     0.90        1     4.77
  STMMN09140       CIRCULAR             0.60     0.28     0.15     0.60        1     0.86
  STMMN09156       CIRCULAR             0.90     0.64     0.23     0.90        1     3.42
  STMMN09157       CIRCULAR             0.60     0.28     0.15     0.60        1     0.73
  STMMN09162       CIRCULAR             0.30     0.07     0.07     0.30        1     0.07
  STMMN09163       CIRCULAR             0.30     0.07     0.07     0.30        1     0.15
  STMMN09164       CIRCULAR             1.20     1.13     0.30     1.20        1     2.24
  STMMN09165       CIRCULAR             0.30     0.07     0.07     0.30        1     0.06
  STMMN09166       CIRCULAR             2.10     3.46     0.53     2.10        1     9.81
  STMMN09269       CIRCULAR             0.30     0.07     0.07     0.30        1     0.10
  STMMN09270       CIRCULAR             0.30     0.07     0.07     0.30        1     0.09
  STMMN09271       CIRCULAR             0.75     0.44     0.19     0.75        1     0.48
  STMMN09272       CIRCULAR             0.75     0.44     0.19     0.75        1     8.81
  STMMN09293       CIRCULAR             0.38     0.11     0.09     0.38        1     0.18
  STMSUR00071_1    TRAPEZOIDAL          3.00    20.25     1.43    12.75        1   208.16
  STMSUR00071_2    TRAPEZOIDAL          3.00    20.25     1.43    12.75        1   322.69
  STMSUR00685_1    TRAPEZOIDAL          1.50     5.63     0.75     6.75        1    11.14
  STMSUR00685_2    TRAPEZOIDAL          5.00    53.75     2.33    20.75        1   190.76
  STMSUR00686_1    TRAPEZOIDAL          1.50     5.63     0.75     6.75        1    11.47
  STMSUR00686_2    TRAPEZOIDAL          1.50     5.63     0.75     6.75        1    13.88
  STMSUR00687      TRAPEZOIDAL          1.50     5.63     0.75     6.75        1     9.73
  STMSUR00689      TRAPEZOIDAL          1.50     5.63     0.75     6.75        1    23.09
  STMSUR00696      TRAPEZOIDAL          1.50     5.63     0.75     6.75        1    21.82
  STMSUR00935_1    TRAPEZOIDAL          5.00   100.00     3.09    30.00        1  1081.75
  STMSUR00935_10   TRAPEZOIDAL          5.00   100.00     3.09    30.00        1   431.84
  STMSUR00935_11   TRAPEZOIDAL          5.00   100.00     3.09    30.00        1   451.43
  STMSUR00935_12   TRAPEZOIDAL          5.00   100.00     3.09    30.00        1  1011.91
  STMSUR00935_13   TRAPEZOIDAL          5.00   100.00     3.09    30.00        1   541.68
  STMSUR00935_14   TRAPEZOIDAL          5.00   100.00     3.09    30.00        1   619.77
  STMSUR00935_15   TRAPEZOIDAL          5.00   100.00     3.09    30.00        1   580.77
  STMSUR00935_16   TRAPEZOIDAL          5.00   100.00     3.09    30.00        1   348.26
  STMSUR00935_17   TRAPEZOIDAL          5.00   175.00     3.70    45.00        1  1382.36
  STMSUR00935_18   TRAPEZOIDAL          5.00   175.00     3.70    45.00        1  1122.92
  STMSUR00935_19   TRAPEZOIDAL          5.00   175.00     3.70    45.00        1   905.58
  STMSUR00935_2    TRAPEZOIDAL          5.00   100.00     3.09    30.00        1   668.46
  STMSUR00935_20   TRAPEZOIDAL          5.00   175.00     3.70    45.00        1   745.86
  STMSUR00935_21   TRAPEZOIDAL          5.00   175.00     3.70    45.00        1   822.44
  STMSUR00935_22   TRAPEZOIDAL          5.00   175.00     3.70    45.00        1   907.94
  STMSUR00935_23   TRAPEZOIDAL          5.00   175.00     3.70    45.00        1  1444.84
  STMSUR00935_24   TRAPEZOIDAL          5.00   175.00     3.70    45.00        1   356.63
  STMSUR00935_25   TRAPEZOIDAL          7.50   300.00     5.12    55.00        1  1636.36
  STMSUR00935_27   TRAPEZOIDAL          7.50   300.00     5.12    55.00        1  3204.94
  STMSUR00935_28   TRAPEZOIDAL          7.50   300.00     5.12    55.00        1  1143.96
  STMSUR00935_29   TRAPEZOIDAL          7.50   300.00     5.12    55.00        1   843.33
  STMSUR00935_3    TRAPEZOIDAL          5.00   100.00     3.09    30.00        1   357.60
  STMSUR00935_4    TRAPEZOIDAL          5.00   100.00     3.09    30.00        1   685.42
  STMSUR00935_5    TRAPEZOIDAL          5.00   100.00     3.09    30.00        1   464.12
  STMSUR00935_6    TRAPEZOIDAL          5.00   100.00     3.09    30.00        1   539.38
  STMSUR00935_7    TRAPEZOIDAL          5.00   100.00     3.09    30.00        1   398.72
  STMSUR00935_8    TRAPEZOIDAL          5.00   100.00     3.09    30.00        1   628.95
  STMSUR00935_9    TRAPEZOIDAL          5.00   100.00     3.09    30.00        1   769.10
  STMSUR00936_1    TRAPEZOIDAL          5.00   100.00     3.09    30.00        1  1979.83
  STMSUR00936_2    TRAPEZOIDAL          5.00   100.00     3.09    30.00        1   169.57
  STMSUR00941      TRAPEZOIDAL          5.00   100.00     3.09    30.00        1   849.64
  STMSUR00942      TRAPEZOIDAL          5.00   100.00     3.09    30.00        1   713.94
  STMSUR02200      TRAPEZOIDAL          1.50     5.63     0.75     6.75        1    16.10
  STMSUR02419      TRAPEZOIDAL          1.50     5.63     0.75     6.75        1    72.50
  STMSUR02420      TRAPEZOIDAL          1.50     5.63     0.75     6.75        1    74.22
  STMSUR02493      TRAPEZOIDAL          1.50     5.63     0.75     6.75        1   106.79
  STMSUR05483      TRAPEZOIDAL          1.50     5.63     0.75     6.75        1    37.28
  STMSUR05488      TRAPEZOIDAL          1.50     5.63     0.75     6.75        1   112.61
  STMSUR05503      TRAPEZOIDAL          5.00    53.75     2.33    20.75        1   604.15
  STMSUR05507      TRAPEZOIDAL          1.50     5.63     0.75     6.75        1     5.58
  STMSUR05508      TRAPEZOIDAL          1.50     5.63     0.75     6.75        1    48.05
  STMSUR05511_1    TRAPEZOIDAL          1.50     5.63     0.75     6.75        1     2.91
  STMSUR05511_2    TRAPEZOIDAL          1.50     5.63     0.75     6.75        1     2.67
  STMSUR05512_1    TRAPEZOIDAL          1.50     5.63     0.75     6.75        1    13.86
  STMSUR05512_2    TRAPEZOIDAL          1.50     5.63     0.75     6.75        1    14.61
  STMSUR05514      TRAPEZOIDAL          1.50     5.63     0.75     6.75        1    34.86
  STMSUR05521      TRAPEZOIDAL          1.50     5.63     0.75     6.75        1    19.90
  STMSUR05523      TRAPEZOIDAL          1.50     5.63     0.75     6.75        1    17.96
  STMSUR05524_1    TRAPEZOIDAL          1.50     5.63     0.75     6.75        1    13.26
  STMSUR05524_3    TRAPEZOIDAL          1.50     5.63     0.75     6.75        1    13.26
  STMSUR05524_4    TRAPEZOIDAL          1.50     5.63     0.75     6.75        1    13.26
  STMSUR05525      TRAPEZOIDAL          1.50     5.63     0.75     6.75        1     4.31
  STMSUR05526      TRAPEZOIDAL          1.50     5.63     0.75     6.75        1     7.59
  STMSUR05530      TRAPEZOIDAL          1.50     5.63     0.75     6.75        1     9.52
  STMSUR05531      TRAPEZOIDAL          1.50     5.63     0.75     6.75        1    22.41
  STMSUR05532      TRAPEZOIDAL          1.50     5.63     0.75     6.75        1    15.82
  STMSUR05541      TRAPEZOIDAL          1.50     5.63     0.75     6.75        1    13.74
  STMSUR05632      TRAPEZOIDAL          1.50     5.63     0.75     6.75        1   109.43
  STMSUR05635      TRAPEZOIDAL          1.50     5.63     0.75     6.75        1   113.62
  STMSUR05825      TRAPEZOIDAL          1.50     5.63     0.75     6.75        1     7.86
  STMSUR05839      TRAPEZOIDAL          5.00    53.75     2.33    20.75        1   351.64
  STMSUR05840      TRAPEZOIDAL          1.50     5.63     0.75     6.75        1    41.18
  STMSUR05871      TRAPEZOIDAL          1.50     5.63     0.75     6.75        1     3.43
  STMSUR05872      TRAPEZOIDAL          1.50     5.63     0.75     6.75        1    15.26
  STMSUR05873      TRAPEZOIDAL          1.50     5.63     0.75     6.75        1     9.45
  STMSUR05874      TRAPEZOIDAL          1.50     5.63     0.75     6.75        1    13.77
  STMSUR06076_1    TRAPEZOIDAL          5.00    53.75     2.33    20.75        1   262.01
  STMSUR06076_2    TRAPEZOIDAL          7.50   118.12     3.44    30.75        1   213.14
  STMSUR06077      TRAPEZOIDAL          5.00    53.75     2.33    20.75        1   144.22
  STMSUR06078      TRAPEZOIDAL          5.00    75.00     2.74    25.00        1   435.23
  STMSUR06079      TRAPEZOIDAL          5.00    53.75     2.33    20.75        1   232.04
  STMSUR06081      TRAPEZOIDAL          7.50   300.00     5.12    55.00        1  3107.03
  STMSUR06082      TRAPEZOIDAL          7.50   118.12     3.44    30.75        1   649.64
  STMSUR06083      TRAPEZOIDAL          1.50     5.63     0.75     6.75        1    30.52
  STMSUR06086      TRAPEZOIDAL          5.00    59.95     2.46    21.99        1   468.15
  STMSUR06087      TRAPEZOIDAL          5.00    53.75     2.33    20.75        1   407.38
  STMSUR06090      TRAPEZOIDAL          1.50     5.63     0.75     6.75        1    39.68
  STMSUR06091      TRAPEZOIDAL          1.50     5.63     0.75     6.75        1     1.86
  STMSUR06131      TRAPEZOIDAL          1.50     5.63     0.75     6.75        1    35.27
  STMSUR06133      TRAPEZOIDAL          5.00    34.95     1.92    11.99        1   265.67
  STMSUR06135      TRAPEZOIDAL          5.00    53.75     2.33    20.75        1   445.74
  STMSUR06136      TRAPEZOIDAL          5.00    59.95     2.46    21.99        1   534.17
  STMSUR06137      TRAPEZOIDAL          5.00    59.95     2.46    21.99        1   634.02
  STMSUR06138      TRAPEZOIDAL          1.50     5.63     0.75     6.75        1    59.42
  STMSUR06140      TRAPEZOIDAL          3.00    20.25     1.43    12.75        1   224.62
  STMSUR06141      TRAPEZOIDAL          5.00    53.75     2.33    20.75        1   783.96
  STMSUR06142      TRAPEZOIDAL          1.50     5.63     0.75     6.75        1    66.43
  STMSUR06143      TRAPEZOIDAL          1.50     5.63     0.75     6.75        1    56.05
  STMSUR06144      TRAPEZOIDAL          1.50     5.63     0.75     6.75        1    53.49
  STMSUR06145      TRAPEZOIDAL          5.00    53.75     2.33    20.75        1   412.88
  STMSUR06146      TRAPEZOIDAL          5.00    53.75     2.33    20.75        1   807.51
  STMSUR06147      TRAPEZOIDAL          1.50     5.63     0.75     6.75        1    52.33
  STMSUR06148      TRAPEZOIDAL          5.00    53.75     2.33    20.75        1   701.58
  STMSUR06158      TRAPEZOIDAL          1.50     5.63     0.75     6.75        1    54.48
  STMSUR06168      TRAPEZOIDAL          1.50     5.63     0.75     6.75        1    64.96
  STMSUR06169      TRAPEZOIDAL          1.50     5.63     0.75     6.75        1    74.37
  STMSUR06170      TRAPEZOIDAL          1.50     5.63     0.75     6.75        1   119.00
  STMSUR06171      TRAPEZOIDAL          1.50     5.63     0.75     6.75        1    41.61
  STMSUR06205      TRAPEZOIDAL          1.50     5.63     0.75     6.75        1    36.90
  
  
  
  *********************
  Rainfall File Summary
  *********************
  Station    First        Last         Recording   Periods    Periods    Periods
  ID         Date         Date         Frequency  w/Precip    Missing    Malfunc.
  -------------------------------------------------------------------------------

  
  ERROR 317: cannot open rainfall data file C:\Users\dickinre\Desktop\SEYMOUR_EXIST_10YR_20161003B.ISDB\JAN01_DN64scale_10yr.dat.

  Analysis begun on:  Fri Nov 29 11:11:33 2019
  Analysis ended on:  Fri Nov 29 11:11:33 2019
  Total elapsed time: < 1 sec