
  EPA STORM WATER MANAGEMENT MODEL - VERSION 5.1 (Build 5.1.013)
  --------------------------------------------------------------

  WARNING 01: wet weather time step reduced to recording interval for Rain Gage CALUMETWRP
  WARNING 03: negative offset ignored for Link C_MSDP_TARP_069
  WARNING 03: negative offset ignored for Link C_MSDP_TARP_099
  WARNING 03: negative offset ignored for Link C_MSDP_TARP_137
  WARNING 03: negative offset ignored for Link C_MSDP_TARP_196
  WARNING 03: negative offset ignored for Link C_MSDP_TARP_226
  WARNING 03: negative offset ignored for Link C_MSDP_TARP_226
  WARNING 03: negative offset ignored for Link C_MSDP_TARP_236
  WARNING 04: minimum elevation drop used for Conduit C_MSDP_TARP_236
  WARNING 03: negative offset ignored for Link C_MSDP_TARP_238
  WARNING 03: negative offset ignored for Link C_MSDP_TARP_239
  WARNING 03: negative offset ignored for Link C_MSDP_TARP_251
  WARNING 03: negative offset ignored for Link C_MSDP_TARP_252
  WARNING 04: minimum elevation drop used for Conduit C_MSDP_TARP_252
  WARNING 03: negative offset ignored for Link C_MSDP_TARP_253
  WARNING 03: negative offset ignored for Link C_MSDP_TARP_253
  WARNING 03: negative offset ignored for Link C_MSDP_TARP_255
  WARNING 03: negative offset ignored for Link C_MSDP_TARP_295
  WARNING 03: negative offset ignored for Link C_MSDP_TARP_328
  WARNING 03: negative offset ignored for Link C_MSDP_TARP_342
  WARNING 03: negative offset ignored for Link DUMMYOUTFALLLINK
  WARNING 02: maximum depth increased for Node JN_MSDP_TARP_006
  WARNING 02: maximum depth increased for Node JN_MSDP_TARP_012
  WARNING 02: maximum depth increased for Node JN_MSDP_TARP_032
  WARNING 02: maximum depth increased for Node JN_MSDP_TARP_040
  WARNING 02: maximum depth increased for Node JN_MSDP_TARP_041
  WARNING 02: maximum depth increased for Node JN_MSDP_TARP_043
  WARNING 02: maximum depth increased for Node JN_MSDP_TARP_048
  WARNING 02: maximum depth increased for Node JN_MSDP_TARP_158
  WARNING 02: maximum depth increased for Node JN_MSDP_TARP_349
  
  *********************************************************
  NOTE: The summary statistics displayed in this report are
  based on results found at every computational time step,  
  not just on results from each reporting time step.
  *********************************************************
  
  ****************
  Analysis Options
  ****************
  Flow Units ............... CFS
  Process Models:
    Rainfall/Runoff ........ YES
    RDII ................... NO
    Snowmelt ............... NO
    Groundwater ............ NO
    Flow Routing ........... YES
    Ponding Allowed ........ NO
    Water Quality .......... NO
  Infiltration Method ...... GREEN_AMPT
  Flow Routing Method ...... DYNWAVE
  Surcharge Method ......... EXTRAN
  Starting Date ............ 01/01/2002 00:00:00
  Ending Date .............. 01/02/2002 06:00:00
  Antecedent Dry Days ...... 5.0
  Report Time Step ......... 00:05:00
  Wet Time Step ............ 00:01:00
  Dry Time Step ............ 01:00:00
  Routing Time Step ........ 1.00 sec
  Variable Time Step ....... YES
  Maximum Trials ........... 8
  Number of Threads ........ 1
  Head Tolerance ........... 0.005000 ft
  
  
  **************************        Volume         Depth
  Runoff Quantity Continuity     acre-feet        inches
  **************************     ---------       -------
  Total Precipitation ......     21713.939         1.605
  Evaporation Loss .........         0.000         0.000
  Infiltration Loss ........     11029.526         0.815
  Surface Runoff ...........      9986.411         0.738
  Final Storage ............       698.055         0.052
  Continuity Error (%) .....        -0.000
  
  
  **************************        Volume        Volume
  Flow Routing Continuity        acre-feet      10^6 gal
  **************************     ---------     ---------
  Dry Weather Inflow .......         0.000         0.000
  Wet Weather Inflow .......      9986.398      3254.217
  Groundwater Inflow .......         0.000         0.000
  RDII Inflow ..............         0.000         0.000
  External Inflow ..........         0.000         0.000
  External Outflow .........         0.000         0.000
  Flooding Loss ............         0.649         0.212
  Evaporation Loss .........         0.000         0.000
  Exfiltration Loss ........         0.000         0.000
  Initial Stored Volume ....         0.004         0.001
  Final Stored Volume ......      4743.698      1545.805
  Continuity Error (%) .....        52.492
  
  
  *************************
  Highest Continuity Errors
  *************************
  Node JN_MSDP_TARP_147 (85.44%)
  Node JN_MSDP_TARP_069 (81.28%)
  Node JN_MSDP_TARP_328 (64.73%)
  Node JN_MSDP_TARP_064 (52.74%)
  Node JN_MSDP_TARP_068 (49.54%)
  
  
  ***************************
  Time-Step Critical Elements
  ***************************
  Link C_MSDP_TARP_252 (1.90%)
  Link C_MSDP_TARP_198 (1.10%)
  
  
  ********************************
  Highest Flow Instability Indexes
  ********************************
  Link C_MSDP_TARP_198 (113)
  Link C_MSDP_TARP_233 (108)
  Link C_MSDP_TARP_136 (106)
  Link C_MSDP_TARP_187 (104)
  Link C_MSDP_TARP_252 (101)
  
  
  *************************
  Routing Time Step Summary
  *************************
  Minimum Time Step           :     0.02 sec
  Average Time Step           :     0.99 sec
  Maximum Time Step           :     1.00 sec
  Percent in Steady State     :    -0.00
  Average Iterations per Step :     7.28
  Percent Not Converging      :    53.75
  
  
  ***************************
  Subcatchment Runoff Summary
  ***************************
  
  ------------------------------------------------------------------------------------------------------------------------------
                            Total      Total      Total      Total     Imperv       Perv      Total       Total     Peak  Runoff
                           Precip      Runon       Evap      Infil     Runoff     Runoff     Runoff      Runoff   Runoff   Coeff
  Subcatchment                 in         in         in         in         in         in         in    10^6 gal      CFS
  ------------------------------------------------------------------------------------------------------------------------------
  01                         1.61       0.00       0.00       0.75       0.80       0.00       0.80        7.19    46.25   0.497
  02A                        1.61       0.00       0.00       0.98       0.59       0.00       0.59        1.58    10.25   0.366
  02B                        1.61       0.00       0.00       0.90       0.66       0.00       0.66        7.25    45.87   0.412
  03                         1.60       0.00       0.00       0.82       0.74       0.00       0.74        3.29    21.21   0.459
  04                         1.60       0.00       0.00       0.64       0.90       0.00       0.90        9.40    60.53   0.563
  05                         1.60       0.00       0.00       0.93       0.63       0.00       0.63       20.76   129.22   0.393
  06                         1.60       0.00       0.00       0.90       0.66       0.00       0.66       12.44    78.81   0.412
  07                         1.60       0.00       0.00       0.91       0.65       0.00       0.65       17.05   106.76   0.403
  08                         1.61       0.00       0.00       0.90       0.66       0.00       0.66        7.77    49.16   0.412
  09                         1.61       0.00       0.00       0.88       0.68       0.00       0.68       13.34    83.99   0.422
  10                         1.60       0.00       0.00       0.95       0.62       0.00       0.62        2.56    16.13   0.384
  11                         1.61       0.00       0.00       0.95       0.62       0.00       0.62       16.91   105.36   0.384
  12                         1.61       0.00       0.00       0.72       0.83       0.00       0.83        4.48    28.30   0.515
  13                         1.61       0.00       0.00       0.79       0.77       0.00       0.77        3.14    20.00   0.478
  14                         1.61       0.00       0.00       0.80       0.75       0.00       0.75       11.76    73.82   0.468
  15                         1.60       0.00       0.00       0.85       0.71       0.00       0.71        6.40    40.68   0.440
  16                         1.60       0.00       0.00       0.93       0.63       0.00       0.63        2.56    16.47   0.394
  17A                        1.60       0.00       0.00       0.98       0.59       0.00       0.59        2.18    14.04   0.366
  17B                        1.61       0.00       0.00       0.75       0.80       0.00       0.80        9.62    60.95   0.497
  18                         1.60       0.00       0.00       0.85       0.71       0.00       0.71        5.00    31.10   0.440
  19                         1.61       0.00       0.00       0.93       0.63       0.00       0.63       21.59   133.66   0.393
  20                         1.61       0.00       0.00       0.64       0.90       0.00       0.90        4.02    25.19   0.562
  21                         1.60       0.00       0.00       0.83       0.72       0.00       0.72       11.95    75.84   0.450
  22                         1.61       0.00       0.00       0.96       0.60       0.00       0.60        0.68     4.41   0.375
  23                         1.61       0.00       0.00       0.95       0.62       0.00       0.62        5.35    33.68   0.384
  24                         1.60       0.00       0.00       0.95       0.62       0.00       0.62        1.28     8.23   0.384
  25                         1.60       0.00       0.00       0.95       0.62       0.00       0.62        1.90    12.12   0.384
  26                         1.60       0.00       0.00       0.93       0.63       0.00       0.63        6.08    38.77   0.394
  27                         1.61       0.00       0.00       0.79       0.77       0.00       0.77        6.33    39.72   0.478
  28                         1.61       0.00       0.00       0.77       0.78       0.00       0.78        6.99    44.26   0.487
  29                         1.60       0.00       0.00       0.90       0.66       0.00       0.66        2.63    16.88   0.412
  30                         1.61       0.00       0.00       0.87       0.69       0.00       0.69        6.25    39.37   0.431
  31                         1.61       0.00       0.00       0.90       0.66       0.00       0.66        5.91    36.95   0.412
  32                         1.60       0.00       0.00       0.80       0.75       0.00       0.75        3.08    19.72   0.469
  33                         1.61       0.00       0.00       0.82       0.74       0.00       0.74        9.61    60.90   0.459
  34                         1.60       0.00       0.00       0.83       0.72       0.00       0.72        9.36    58.47   0.450
  35                         1.61       0.00       0.00       0.85       0.71       0.00       0.71        5.32    33.42   0.440
  36                         1.60       0.00       0.00       0.96       0.60       0.00       0.60        4.25    27.30   0.375
  37                         1.60       0.00       0.00       1.08       0.50       0.00       0.50        1.54     9.81   0.309
  38                         1.61       0.00       0.00       0.91       0.65       0.00       0.65       12.50    78.02   0.403
  39                         1.60       0.00       0.00       0.93       0.63       0.00       0.63        4.55    28.71   0.394
  40                         1.61       0.00       0.00       0.95       0.62       0.00       0.62        2.21    14.05   0.384
  41                         1.61       0.00       0.00       0.90       0.66       0.00       0.66        7.75    48.81   0.412
  42                         1.61       0.00       0.00       0.93       0.63       0.00       0.63        1.69    10.78   0.394
  43                         1.61       0.00       0.00       1.01       0.56       0.00       0.56        3.20    20.66   0.347
  44                         1.61       0.00       0.00       0.96       0.60       0.00       0.60        3.56    22.72   0.375
  45                         1.60       0.00       0.00       0.96       0.60       0.00       0.60        1.65    10.55   0.375
  46                         1.60       0.00       0.00       0.95       0.62       0.00       0.62        3.44    21.54   0.384
  47                         1.60       0.00       0.00       0.96       0.60       0.00       0.60        0.45     2.89   0.375
  48                         1.61       0.00       0.00       1.06       0.51       0.00       0.51        0.76     4.90   0.319
  49                         1.61       0.00       0.00       0.93       0.63       0.00       0.63        6.81    43.77   0.394
  50                         1.61       0.00       0.00       0.93       0.63       0.00       0.63        2.07    13.31   0.394
  51                         1.60       0.00       0.00       0.82       0.74       0.00       0.74        4.79    30.13   0.459
  52                         1.61       0.00       0.00       0.85       0.71       0.00       0.71       14.47    90.17   0.440
  53                         1.60       0.00       0.00       1.04       0.53       0.00       0.53        2.28    14.65   0.328
  54                         1.60       0.00       0.00       1.04       0.53       0.00       0.53        2.26    14.54   0.328
  55                         1.60       0.00       0.00       0.95       0.62       0.00       0.62        7.46    47.70   0.384
  56                         1.60       0.00       0.00       1.00       0.57       0.00       0.57        2.45    15.85   0.356
  57                         1.61       0.00       0.00       0.87       0.69       0.00       0.69       17.15   106.52   0.431
  58                         1.61       0.00       0.00       0.93       0.63       0.00       0.63       15.29    96.27   0.394
  59                         1.60       0.00       0.00       0.93       0.63       0.00       0.63        3.83    23.96   0.393
  60                         1.60       0.00       0.00       0.96       0.60       0.00       0.60        1.71    10.97   0.375
  61                         1.60       0.00       0.00       0.83       0.72       0.00       0.72        7.14    45.62   0.450
  62                         1.61       0.00       0.00       0.91       0.65       0.00       0.65        0.98     6.33   0.403
  63                         1.61       0.00       0.00       0.90       0.66       0.00       0.66        8.34    52.48   0.412
  64                         1.60       0.00       0.00       1.01       0.56       0.00       0.56        0.76     4.89   0.347
  65                         1.60       0.00       0.00       0.88       0.68       0.00       0.68        4.53    29.23   0.422
  66                         1.60       0.00       0.00       0.85       0.71       0.00       0.71        0.71     4.61   0.441
  68                         1.61       0.00       0.00       0.90       0.66       0.00       0.66        1.39     8.97   0.413
  MS001                      1.60       0.00       0.00       0.90       0.66       0.00       0.66       29.75   184.53   0.409
  MS003                      1.60       0.00       0.00       0.96       0.60       0.00       0.60        1.33     8.68   0.375
  MS005                      1.60       0.00       0.00       0.79       0.76       0.00       0.76        4.51    28.97   0.475
  MS008                      1.60       0.00       0.00       0.86       0.69       0.00       0.69        7.29    46.35   0.433
  MS011                      1.60       0.00       0.00       0.88       0.68       0.00       0.68       11.35    72.36   0.421
  MS012                      1.60       0.00       0.00       0.85       0.71       0.00       0.71        7.52    47.10   0.441
  MS013                      1.61       0.00       0.00       0.84       0.72       0.00       0.72       37.74   233.78   0.446
  MS014                      1.61       0.00       0.00       0.96       0.60       0.00       0.60        0.22     1.46   0.375
  MS015                      1.60       0.00       0.00       0.83       0.72       0.00       0.72        2.40    15.29   0.450
  MS016                      1.60       0.00       0.00       0.78       0.77       0.00       0.77       49.39   308.49   0.482
  MS017                      1.60       0.00       0.00       0.72       0.83       0.00       0.83        6.08    37.96   0.519
  MS018                      1.61       0.00       0.00       0.82       0.74       0.00       0.74       47.05   279.59   0.458
  MS020                      1.60       0.00       0.00       0.76       0.79       0.00       0.79        8.67    54.66   0.493
  MS021                      1.61       0.00       0.00       0.64       0.90       0.00       0.90        0.98     6.29   0.562
  MS024                      1.60       0.00       0.00       0.82       0.74       0.00       0.74        7.27    46.61   0.460
  MS026                      1.61       0.00       0.00       0.73       0.82       0.00       0.82       37.01   228.22   0.511
  MS028                      1.61       0.00       0.00       0.48       1.05       0.00       1.05        1.11     7.14   0.656
  MS029                      1.60       0.00       0.00       0.75       0.80       0.00       0.80       10.55    66.13   0.496
  MS030                      1.60       0.00       0.00       0.84       0.72       0.00       0.72       20.05   124.19   0.449
  MS031                      1.60       0.00       0.00       0.79       0.76       0.00       0.76        6.54    41.29   0.475
  MS032                      1.60       0.00       0.00       0.84       0.72       0.00       0.72       25.30   156.29   0.449
  MS033                      1.60       0.00       0.00       0.77       0.78       0.00       0.78        1.63    10.41   0.489
  MS034                      1.61       0.00       0.00       0.88       0.68       0.00       0.68       11.17    71.50   0.422
  MS035                      1.60       0.00       0.00       0.96       0.60       0.00       0.60        3.53    22.26   0.375
  MS036                      1.60       0.00       0.00       0.96       0.60       0.00       0.60        7.25    46.36   0.375
  MS037                      1.61       0.00       0.00       0.81       0.75       0.00       0.75        7.14    45.55   0.464
  MS038                      1.60       0.00       0.00       0.96       0.61       0.00       0.61        1.55    10.00   0.379
  MS040                      1.61       0.00       0.00       0.95       0.62       0.00       0.62        4.30    27.59   0.384
  MS041                      1.61       0.00       0.00       0.91       0.65       0.00       0.65        2.97    18.94   0.406
  MS042                      1.60       0.00       0.00       0.80       0.75       0.00       0.75       11.18    71.63   0.469
  MS043                      1.60       0.00       0.00       0.96       0.60       0.00       0.60        1.90    12.25   0.375
  MS044                      1.60       0.00       0.00       0.92       0.64       0.00       0.64        3.30    21.13   0.401
  MS045                      1.60       0.00       0.00       0.96       0.60       0.00       0.60        0.76     4.93   0.375
  MS049                      1.60       0.00       0.00       0.86       0.69       0.00       0.69       10.97    68.00   0.432
  MS051                      1.61       0.00       0.00       0.73       0.82       0.00       0.82       11.74    72.91   0.513
  MS054                      1.60       0.00       0.00       0.92       0.64       0.00       0.64       18.59   117.12   0.399
  MS057                      1.60       0.00       0.00       0.75       0.81       0.00       0.81        6.07    38.61   0.502
  MS059                      1.61       0.00       0.00       0.73       0.82       0.00       0.82        1.15     7.42   0.509
  MS060                      1.61       0.00       0.00       0.88       0.68       0.00       0.68        5.01    32.04   0.425
  MS061                      1.60       0.00       0.00       0.62       0.92       0.00       0.92        9.38    58.95   0.574
  MS062                      1.60       0.00       0.00       1.04       0.53       0.00       0.53        1.09     7.08   0.330
  MS069                      1.60       0.00       0.00       0.95       0.62       0.00       0.62        4.41    28.10   0.385
  MS070                      1.60       0.00       0.00       0.56       0.98       0.00       0.98       12.40    75.72   0.611
  MS071                      1.60       0.00       0.00       0.95       0.62       0.00       0.62        6.89    44.32   0.384
  MS072                      1.61       0.00       0.00       1.00       0.56       0.00       0.56        3.49    22.27   0.351
  MS093                      1.61       0.00       0.00       0.89       0.67       0.00       0.67       78.03   485.62   0.418
  MS094                      1.60       0.00       0.00       0.80       0.75       0.00       0.75      110.18   683.16   0.470
  MS095                      1.60       0.00       0.00       0.87       0.69       0.00       0.69       85.06   521.61   0.429
  MS100                      1.60       0.00       0.00       0.96       0.60       0.00       0.60        0.74     4.83   0.375
  MS101                      1.60       0.00       0.00       0.89       0.67       0.00       0.67        2.24    14.46   0.418
  MS103                      1.60       0.00       0.00       0.96       0.60       0.00       0.60        0.84     5.47   0.375
  MS105                      1.60       0.00       0.00       0.85       0.70       0.00       0.70        5.68    35.53   0.438
  MS106                      1.60       0.00       0.00       0.96       0.60       0.00       0.60        0.88     5.70   0.375
  MS111A                     1.61       0.00       0.00       0.89       0.67       0.00       0.67       11.05    69.23   0.420
  MS112                      1.60       0.00       0.00       0.90       0.66       0.00       0.66        1.86    11.98   0.414
  MS113                      1.61       0.00       0.00       0.96       0.60       0.00       0.60        1.41     9.08   0.375
  MS114A                     1.60       0.00       0.00       0.89       0.67       0.00       0.67       11.06    68.41   0.414
  MS115                      1.61       0.00       0.00       0.83       0.72       0.00       0.72       13.93    87.05   0.451
  MS116                      1.60       0.00       0.00       0.92       0.64       0.00       0.64        1.37     8.85   0.399
  MS117                      1.61       0.00       0.00       0.87       0.69       0.00       0.69      102.77   610.59   0.427
  MS118                      1.61       0.00       0.00       0.68       0.87       0.00       0.87        6.54    42.14   0.541
  MS119                      1.60       0.00       0.00       0.86       0.70       0.00       0.70        6.72    42.36   0.437
  MS120                      1.60       0.00       0.00       0.66       0.88       0.00       0.88        0.88     5.66   0.550
  MS121                      1.60       0.00       0.00       0.84       0.72       0.00       0.72       17.67   108.31   0.448
  MS122                      1.60       0.00       0.00       0.76       0.79       0.00       0.79        6.15    39.35   0.494
  MS124                      1.61       0.00       0.00       0.84       0.71       0.00       0.71       37.16   222.23   0.443
  MS127                      1.60       0.00       0.00       0.59       0.95       0.00       0.95        6.94    44.49   0.594
  MS128                      1.61       0.00       0.00       0.79       0.77       0.00       0.77       15.52    95.20   0.477
  MS130                      1.61       0.00       0.00       0.75       0.80       0.00       0.80        3.07    19.66   0.497
  MS131                      1.61       0.00       0.00       0.83       0.72       0.00       0.72       21.56   135.31   0.450
  MS134                      1.60       0.00       0.00       0.69       0.86       0.00       0.86        0.99     6.39   0.536
  MS136                      1.60       0.00       0.00       0.51       1.03       0.00       1.03        4.26    27.22   0.639
  MS137                      1.60       0.00       0.00       0.79       0.76       0.00       0.76        6.51    40.49   0.473
  MS138                      1.61       0.00       0.00       0.87       0.68       0.00       0.68       41.18   249.63   0.427
  MS139                      1.61       0.00       0.00       0.48       1.05       0.00       1.05        0.69     4.46   0.656
  MS141                      1.60       0.00       0.00       0.78       0.77       0.00       0.77        0.76     4.95   0.481
  MS142                      1.61       0.00       0.00       0.48       1.05       0.00       1.05        2.19    14.05   0.656
  MS144                      1.60       0.00       0.00       0.60       0.95       0.00       0.95        1.23     7.91   0.589
  MS144A                     1.60       0.00       0.00       0.78       0.77       0.00       0.77       14.94    92.35   0.478
  MS146                      1.61       0.00       0.00       0.90       0.66       0.00       0.66       12.86    80.38   0.413
  MS149                      1.60       0.00       0.00       0.48       1.05       0.00       1.05        1.32     8.51   0.655
  MS150                      1.61       0.00       0.00       0.48       1.05       0.00       1.05        3.72    24.05   0.657
  MS151                      1.61       0.00       0.00       0.57       0.97       0.00       0.97        1.29     8.23   0.603
  MS152                      1.60       0.00       0.00       0.51       1.02       0.00       1.02        1.03     6.67   0.638
  MS153                      1.61       0.00       0.00       0.61       0.94       0.00       0.94        0.78     5.01   0.583
  MS154                      1.60       0.00       0.00       0.48       1.05       0.00       1.05        1.05     6.84   0.656
  MS157                      1.61       0.00       0.00       0.68       0.87       0.00       0.87       18.19   114.91   0.543
  MS159                      1.60       0.00       0.00       0.88       0.68       0.00       0.68        5.14    33.20   0.425
  MS161                      1.61       0.00       0.00       0.61       0.93       0.00       0.93        3.57    23.14   0.581
  MS162                      1.61       0.00       0.00       0.64       0.90       0.00       0.90        2.99    19.35   0.563
  MS163                      1.60       0.00       0.00       0.64       0.90       0.00       0.90        4.02    25.26   0.562
  MS168                      1.60       0.00       0.00       0.64       0.90       0.00       0.90        1.83    11.75   0.562
  MS172                      1.60       0.00       0.00       0.64       0.90       0.00       0.90        4.44    28.04   0.563
  MS176                      1.61       0.00       0.00       0.64       0.90       0.00       0.90        1.62    10.48   0.563
  MS178                      1.61       0.00       0.00       0.69       0.86       0.00       0.86       25.04   155.05   0.536
  MS182                      1.60       0.00       0.00       0.64       0.90       0.00       0.90        5.32    33.76   0.562
  MS185                      1.61       0.00       0.00       0.59       0.96       0.00       0.96        2.91    18.77   0.595
  MS186                      1.61       0.00       0.00       0.78       0.77       0.00       0.77        4.10    26.26   0.480
  MS187                      1.61       0.00       0.00       0.57       0.97       0.00       0.97        2.60    16.60   0.606
  MS189                      1.60       0.00       0.00       0.57       0.97       0.00       0.97        1.31     8.45   0.607
  MS191                      1.61       0.00       0.00       0.55       0.99       0.00       0.99        1.54     9.94   0.614
  MS193                      1.61       0.00       0.00       0.56       0.98       0.00       0.98        0.76     4.91   0.609
  MS194                      1.60       0.00       0.00       0.58       0.96       0.00       0.96        0.70     4.56   0.597
  MS197                      1.60       0.00       0.00       0.61       0.93       0.00       0.93        1.60    10.28   0.581
  MS199                      1.61       0.00       0.00       0.74       0.81       0.00       0.81        1.41     9.07   0.505
  MS204                      1.61       0.00       0.00       0.52       1.02       0.00       1.02        0.88     5.70   0.635
  MS208                      1.60       0.00       0.00       0.71       0.84       0.00       0.84       13.29    84.02   0.524
  MS209                      1.60       0.00       0.00       0.51       1.03       0.00       1.03        2.29    14.68   0.639
  MS211                      1.60       0.00       0.00       0.71       0.84       0.00       0.84        2.21    14.22   0.524
  MS213                      1.60       0.00       0.00       0.61       0.93       0.00       0.93        3.93    25.17   0.581
  MS218                      1.60       0.00       0.00       0.75       0.80       0.00       0.80       54.68   332.62   0.499
  MS219                      1.60       0.00       0.00       0.82       0.73       0.00       0.73        2.41    15.57   0.458
  MS220                      1.60       0.00       0.00       0.69       0.85       0.00       0.85       14.10    88.03   0.531
  MS222                      1.60       0.00       0.00       0.66       0.88       0.00       0.88        9.99    62.68   0.550
  MS225                      1.60       0.00       0.00       0.76       0.79       0.00       0.79       60.32   367.99   0.493
  MS226                      1.60       0.00       0.00       0.84       0.72       0.00       0.72       30.65   189.24   0.447
  MS228                      1.60       0.00       0.00       0.71       0.84       0.00       0.84       37.74   231.02   0.522
  MS230                      1.60       0.00       0.00       0.80       0.75       0.00       0.75       21.77   136.14   0.468
  MS231                      1.60       0.00       0.00       0.59       0.95       0.00       0.95        3.31    21.43   0.593
  MS232                      1.60       0.00       0.00       0.51       1.02       0.00       1.02       11.46    71.75   0.638
  MS234                      1.61       0.00       0.00       0.77       0.78       0.00       0.78        7.60    48.50   0.486
  MS235                      1.60       0.00       0.00       0.80       0.76       0.00       0.76       19.17   118.97   0.473
  MS236                      1.60       0.00       0.00       0.71       0.84       0.00       0.84       40.75   245.28   0.522
  MS237                      1.61       0.00       0.00       0.76       0.79       0.00       0.79      163.58   949.03   0.491
  MS238                      1.61       0.00       0.00       0.70       0.85       0.00       0.85        6.99    44.50   0.529
  MS239                      1.60       0.00       0.00       0.81       0.74       0.00       0.74      184.73  1016.30   0.462
  MS240                      1.60       0.00       0.00       0.60       0.94       0.00       0.94       30.32   190.24   0.584
  MS240-1                    1.61       0.00       0.00       0.87       0.69       0.00       0.69       36.27   216.16   0.431
  MS241                      1.60       0.00       0.00       0.35       1.18       0.00       1.18        4.46    28.36   0.732
  MS242                      1.61       0.00       0.00       0.45       1.08       0.00       1.08        1.87    12.03   0.676
  MS245                      1.61       0.00       0.00       0.75       0.80       0.00       0.80       13.00    80.60   0.501
  MS247                      1.61       0.00       0.00       0.55       0.99       0.00       0.99        1.23     7.80   0.614
  MS249                      1.60       0.00       0.00       0.81       0.74       0.00       0.74      499.14  2708.96   0.459
  MS250                      1.61       0.00       0.00       0.84       0.72       0.00       0.72       23.55   147.56   0.447
  MS251                      1.60       0.00       0.00       0.74       0.81       0.00       0.81       96.78   560.16   0.504
  MS254                      1.60       0.00       0.00       0.79       0.76       0.00       0.76       47.15   299.87   0.474
  MS255                      1.61       0.00       0.00       0.87       0.69       0.00       0.69       79.81   485.59   0.429
  MS257                      1.60       0.00       0.00       0.64       0.90       0.00       0.90        1.35     8.80   0.561
  MS258                      1.60       0.00       0.00       0.71       0.84       0.00       0.84        3.67    23.55   0.521
  MS259                      1.60       0.00       0.00       0.55       0.99       0.00       0.99        1.67    10.86   0.617
  MS262                      1.60       0.00       0.00       0.85       0.71       0.00       0.71       10.30    65.72   0.444
  MS263                      1.60       0.00       0.00       0.73       0.82       0.00       0.82        9.55    60.95   0.508
  MS264                      1.60       0.00       0.00       0.71       0.84       0.00       0.84       36.92   235.54   0.525
  MS265                      1.60       0.00       0.00       0.85       0.70       0.00       0.70       36.95   232.74   0.438
  
  
  ******************
  Node Depth Summary
  ******************
  
  ---------------------------------------------------------------------------------
                                 Average  Maximum  Maximum  Time of Max    Reported
                                   Depth    Depth      HGL   Occurrence   Max Depth
  Node                 Type         Feet     Feet     Feet  days hr:min        Feet
  ---------------------------------------------------------------------------------
  JN01                 JUNCTION     0.51     1.81    45.66     0  04:44        1.81
  JN02A                JUNCTION     0.23     0.83    47.79     0  04:39        0.83
  JN02B                JUNCTION     0.48     1.56    39.86     0  04:51        1.56
  JN03                 JUNCTION     0.33     1.14    57.19     0  04:43        1.14
  JN04                 JUNCTION     0.45     1.57    57.16     0  04:43        1.57
  JN05                 JUNCTION     0.76     2.47    53.18     0  04:58        2.47
  JN06                 JUNCTION     0.59     1.98    41.15     0  04:50        1.98
  JN07                 JUNCTION     0.49     1.89    51.83     0  04:55        1.89
  JN08                 JUNCTION     0.46     1.51    32.27     0  04:51        1.51
  JN09                 JUNCTION     0.26     0.97    47.36     0  04:53        0.97
  JN10                 JUNCTION     0.35     1.12    39.04     0  04:54        1.12
  JN11                 JUNCTION     0.51     1.97    29.32     0  04:58        1.97
  JN12                 JUNCTION     0.51     1.84    45.29     0  04:53        1.84
  JN13                 JUNCTION     0.37     1.25    39.87     0  04:48        1.25
  JN14                 JUNCTION     0.58     1.88    32.09     0  04:54        1.88
  JN15                 JUNCTION     0.49     1.64    26.90     0  04:49        1.64
  JN16                 JUNCTION     0.31     1.07    38.13     0  04:44        1.07
  JN17A                JUNCTION     0.25     0.85    29.67     0  04:43        0.85
  JN17B                JUNCTION     0.50     1.65    32.84     0  04:50        1.65
  JN18                 JUNCTION     0.54     1.72    29.94     0  05:00        1.72
  JN19                 JUNCTION     0.46     1.74    28.23     0  05:00        1.74
  JN20                 JUNCTION     0.49     1.60    44.65     0  04:56        1.60
  JN21                 JUNCTION    15.89   100.00   133.17     0  04:13      100.00
  JN22                 JUNCTION     0.17     0.61    44.41     0  04:42        0.61
  JN23                 JUNCTION     0.42     1.35    27.45     0  04:54        1.35
  JN24                 JUNCTION     0.25     0.88    44.60     0  04:45        0.88
  JN25                 JUNCTION     0.33     1.12    42.13     0  04:48        1.12
  JN26                 JUNCTION     0.35     1.17    32.47     0  04:47        1.17
  JN27                 JUNCTION     0.56     1.85    33.80     0  04:55        1.85
  JN28                 JUNCTION     0.42     1.40    49.53     0  04:51        1.40
  JN29                 JUNCTION     0.25     0.84    67.87     0  04:45        0.84
  JN30                 JUNCTION     0.49     1.58    29.15     0  04:53        1.58
  JN31                 JUNCTION     0.57     1.84    34.26     0  04:57        1.84
  JN32                 JUNCTION     0.36     1.27    50.81     0  04:47        1.27
  JN33                 JUNCTION     0.58     1.95    47.18     0  04:50        1.95
  JN34                 JUNCTION     0.43     1.65    52.12     0  04:57        1.65
  JN35                 JUNCTION     0.52     1.71    32.45     0  04:55        1.71
  JN36                 JUNCTION     0.38     1.29    28.94     0  04:45        1.29
  JN37                 JUNCTION     0.37     1.27    35.01     0  04:49        1.27
  JN38                 JUNCTION     0.68     2.21    34.23     0  04:57        2.21
  JN39                 JUNCTION     0.88    13.96    41.31     0  04:04        4.83
  JN40                 JUNCTION     0.39     1.36    37.98     0  04:50        1.36
  JN41                 JUNCTION     0.58     1.92    21.66     0  04:53        1.92
  JN42                 JUNCTION     0.43     1.62    29.89     0  04:51        1.62
  JN43                 JUNCTION     0.27     0.92    22.15     0  04:42        0.92
  JN44                 JUNCTION     0.47     1.59    14.86     0  04:48        1.59
  JN45                 JUNCTION     0.41     1.46    16.79     0  04:49        1.46
  JN46                 JUNCTION     0.53     1.70    26.93     0  04:57        1.70
  JN47                 JUNCTION     0.21     0.90    34.98     0  04:46        0.90
  JN48                 JUNCTION     0.19     0.65    22.31     0  04:43        0.65
  JN49                 JUNCTION     0.41     1.41    33.25     0  04:43        1.41
  JN50                 JUNCTION     0.39     1.49    32.60     0  04:46        1.49
  JN51                 JUNCTION     0.46     1.48    25.87     0  04:54        1.48
  JN52                 JUNCTION     0.70     2.31    40.05     0  04:57        2.31
  JN53                 JUNCTION     0.35     1.26    51.36     0  04:44        1.26
  JN54                 JUNCTION     0.31     1.07    58.16     0  04:45        1.07
  JN55                 JUNCTION     0.42     1.42    76.33     0  04:46        1.42
  JN56                 JUNCTION     0.22     0.76    77.07     0  04:42        0.76
  JN57                 JUNCTION     0.58     1.82    47.43     0  04:58        1.82
  JN58                 JUNCTION     0.47     1.53    56.42     0  04:52        1.53
  JN59                 JUNCTION     0.47     1.48    45.27     0  04:57        1.48
  JN60                 JUNCTION     0.28     0.95    43.92     0  04:47        0.95
  JN61                 JUNCTION     0.44     1.49    43.65     0  04:46        1.49
  JN62                 JUNCTION     0.25     0.87    32.10     0  04:46        0.87
  JN63                 JUNCTION     0.53     1.73    32.66     0  04:53        1.73
  JN64                 JUNCTION     0.16     0.57    60.31     0  04:42        0.57
  JN65                 JUNCTION     0.30     1.07    88.93     0  04:42        1.07
  JN66                 JUNCTION     0.19     0.66    40.61     0  04:43        0.66
  JN68                 JUNCTION     0.26     0.90    67.41     0  04:44        0.90
  JN_MS001             JUNCTION     0.44     1.68    13.43     0  04:59        1.68
  JN_MS003             JUNCTION     0.24     0.93    33.21     0  04:39        0.93
  JN_MS005             JUNCTION     0.35     1.22    23.49     0  04:44        1.22
  JN_MS008             JUNCTION     0.51     1.75    14.12     0  04:49        1.75
  JN_MS011             JUNCTION     0.53     1.82    15.46     0  04:47        1.82
  JN_MS012             JUNCTION     0.55     1.79    10.22     0  04:56        1.79
  JN_MS013             JUNCTION     0.97     3.17    12.36     0  05:00        3.17
  JN_MS014             JUNCTION     0.10     0.37    14.72     0  04:39        0.37
  JN_MS015             JUNCTION     0.33     1.10    11.31     0  04:49        1.10
  JN_MS016             JUNCTION     0.83     2.67    17.19     0  04:56        2.67
  JN_MS017             JUNCTION     0.53     1.71     8.84     0  04:57        1.71
  JN_MS018             JUNCTION     1.31     4.17    10.23     0  05:18        4.17
  JN_MS020             JUNCTION     0.51     1.67    10.67     0  04:52        1.67
  JN_MS021             JUNCTION     0.18     0.62    16.66     0  04:44        0.62
  JN_MS024             JUNCTION     0.39     1.32    19.54     0  04:44        1.32
  JN_MS026             JUNCTION     0.67     2.56     7.57     0  05:02        2.56
  JN_MS028             JUNCTION     0.23     0.78    14.92     0  04:45        0.78
  JN_MS029             JUNCTION     0.68     2.19     6.79     0  04:56        2.19
  JN_MS030             JUNCTION     0.89     2.88     7.84     0  05:00        2.88
  JN_MS031             JUNCTION     0.19     0.70     5.76     0  04:52        0.70
  JN_MS032             JUNCTION     0.41     1.54     9.47     0  05:01        1.54
  JN_MS033             JUNCTION     0.31     1.05    10.75     0  04:48        1.05
  JN_MS034             JUNCTION     0.58     1.95     5.43     0  04:46        1.95
  JN_MS035             JUNCTION     0.39     1.24     5.31     0  04:53        1.24
  JN_MS036             JUNCTION     0.46     1.57     7.69     0  04:46        1.57
  JN_MS037             JUNCTION     0.45     1.53     6.53     0  04:47        1.53
  JN_MS038             JUNCTION     0.21     0.73     8.55     0  04:43        0.73
  JN_MS040             JUNCTION     0.18     0.72     5.83     0  04:44        0.72
  JN_MS041             JUNCTION     0.34     1.13     4.66     0  04:47        1.13
  JN_MS042             JUNCTION     0.58     1.99     6.33     0  04:45        1.99
  JN_MS043             JUNCTION     0.27     0.94     9.62     0  04:44        0.94
  JN_MS044             JUNCTION     0.38     1.32     6.44     0  04:46        1.32
  JN_MS045             JUNCTION     0.20     0.78    16.11     0  04:39        0.78
  JN_MS049             JUNCTION     0.73     2.41    45.47     0  05:00        2.41
  JN_MS051             JUNCTION     4.43    35.11    71.72     0  03:16       33.34
  JN_MS054             JUNCTION     0.69     2.32    44.57     0  04:52        2.32
  JN_MS057             JUNCTION     0.45     1.48    42.78     0  04:49        1.48
  JN_MS059             JUNCTION     0.19     0.66    43.78     0  04:42        0.66
  JN_MS060             JUNCTION     0.37     1.26    45.75     0  04:46        1.26
  JN_MS061             JUNCTION     0.68     2.58    47.04     0  04:55        2.58
  JN_MS062             JUNCTION     0.20     0.74    70.76     0  04:38        0.74
  JN_MS069             JUNCTION     0.34     1.16    42.22     0  04:47        1.16
  JN_MS070             JUNCTION     0.47     1.74    28.09     0  05:07        1.74
  JN_MS071             JUNCTION     0.39     1.38    43.66     0  04:43        1.38
  JN_MS072             JUNCTION     0.40     1.34    28.66     0  04:48        1.34
  JN_MS093             JUNCTION     1.64    37.78    58.73     0  04:33        8.97
  JN_MS094             JUNCTION     1.19     3.81    18.61     0  04:59        3.81
  JN_MS095             JUNCTION     6.26    43.51    60.42     0  05:03       43.49
  JN_MS100             JUNCTION     0.18     0.63     9.89     0  04:41        0.63
  JN_MS101             JUNCTION     0.29     1.00     8.27     0  04:42        1.00
  JN_MS103             JUNCTION     0.16     0.56     1.23     0  04:41        0.56
  JN_MS105             JUNCTION     0.51     1.63    -0.33     0  04:57        1.63
  JN_MS106             JUNCTION     0.18     0.62    -0.29     0  04:42        0.62
  JN_MS111A            JUNCTION     0.67     2.19     0.82     0  04:55        2.19
  JN_MS112             JUNCTION     0.24     0.83     1.82     0  04:44        0.83
  JN_MS113             JUNCTION     0.16     0.57    11.51     0  04:43        0.57
  JN_MS114A            JUNCTION     0.73     2.34     2.13     0  05:01        2.34
  JN_MS115             JUNCTION     0.37     1.41    -1.84     0  04:57        1.41
  JN_MS116             JUNCTION     0.18     0.62    12.46     0  04:43        0.62
  JN_MS117             JUNCTION     1.52     5.85    11.72     0  05:18        5.84
  JN_MS118             JUNCTION     0.32     1.10    16.52     0  04:43        1.10
  JN_MS119             JUNCTION     0.49     1.59     7.37     0  04:53        1.59
  JN_MS120             JUNCTION     0.23     0.81     6.06     0  04:43        0.81
  JN_MS121             JUNCTION     0.37     1.34    -6.02     0  05:05        1.34
  JN_MS122             JUNCTION     0.31     1.06    10.87     0  04:45        1.06
  JN_MS124             JUNCTION     0.94     3.48    -7.01     0  05:15        3.48
  JN_MS127             JUNCTION     0.34     1.15    15.98     0  04:44        1.15
  JN_MS128             JUNCTION     0.71     2.15    -5.99     0  05:05        2.15
  JN_MS130             JUNCTION     0.32     1.10     6.03     0  04:46        1.10
  JN_MS131             JUNCTION     0.72     2.32    -0.22     0  04:54        2.32
  JN_MS134             JUNCTION     0.19     0.65     3.58     0  04:43        0.65
  JN_MS136             JUNCTION     0.27     0.91    12.96     0  04:46        0.91
  JN_MS137             JUNCTION     0.56     1.81    -1.07     0  04:58        1.81
  JN_MS138             JUNCTION     0.64     2.36   -14.06     0  05:09        2.36
  JN_MS139             JUNCTION     0.13     0.46    20.02     0  04:39        0.46
  JN_MS141             JUNCTION     0.14     0.49     2.23     0  04:40        0.48
  JN_MS142             JUNCTION     0.28     0.98     3.62     0  04:45        0.98
  JN_MS144             JUNCTION     0.29     0.98     1.76     0  04:47        0.98
  JN_MS144A            JUNCTION     0.77     2.47     1.32     0  05:01        2.47
  JN_MS146             JUNCTION     0.40     1.49   -10.72     0  04:57        1.49
  JN_MS149             JUNCTION     0.23     0.83    11.69     0  04:42        0.83
  JN_MS150             JUNCTION     0.28     0.98    22.41     0  04:42        0.98
  JN_MS151             JUNCTION     0.24     0.81    -2.61     0  04:48        0.81
  JN_MS152             JUNCTION     0.14     0.51    23.47     0  04:39        0.51
  JN_MS153             JUNCTION     0.22     0.71    -4.24     0  04:49        0.71
  JN_MS154             JUNCTION     0.13     0.48    21.00     0  04:40        0.48
  JN_MS157             JUNCTION     0.28     1.09     2.80     0  04:52        1.09
  JN_MS159             JUNCTION     0.29     1.00    12.87     0  04:42        1.00
  JN_MS161             JUNCTION     0.25     0.87    -0.10     0  04:41        0.87
  JN_MS162             JUNCTION     0.24     0.83    15.95     0  04:41        0.83
  JN_MS163             JUNCTION     0.46     1.44    -6.24     0  04:55        1.44
  JN_MS168             JUNCTION     0.29     0.97    -6.20     0  04:47        0.97
  JN_MS172             JUNCTION     0.21     0.79    -4.15     0  04:53        0.79
  JN_MS176             JUNCTION     0.05     0.21     8.96     0  04:41        0.21
  JN_MS178             JUNCTION     0.47     1.79    -7.76     0  05:00        1.79
  JN_MS182             JUNCTION     0.15     0.56     4.53     0  04:49        0.56
  JN_MS185             JUNCTION     0.23     0.81    12.13     0  04:43        0.81
  JN_MS186             JUNCTION     0.36     1.24     8.44     0  04:45        1.24
  JN_MS187             JUNCTION     0.15     0.59     2.69     0  04:47        0.59
  JN_MS189             JUNCTION     0.10     0.40     6.65     0  04:43        0.40
  JN_MS191             JUNCTION     0.08     0.33    10.07     0  04:43        0.33
  JN_MS193             JUNCTION     0.14     0.49     3.19     0  04:40        0.49
  JN_MS194             JUNCTION     0.14     0.51     2.17     0  04:41        0.51
  JN_MS197             JUNCTION     0.22     0.75     6.75     0  04:44        0.75
  JN_MS199             JUNCTION     0.21     0.72     2.41     0  04:44        0.72
  JN_MS204             JUNCTION     0.18     0.62     3.48     0  04:42        0.62
  JN_MS208             JUNCTION     0.28     1.07    -5.25     0  04:51        1.07
  JN_MS209             JUNCTION     0.26     0.90    -2.97     0  04:45        0.90
  JN_MS211             JUNCTION     0.26     0.91     2.53     0  04:44        0.91
  JN_MS213             JUNCTION     0.34     1.16     4.66     0  04:46        1.16
  JN_MS218             JUNCTION     0.61     2.24    -9.45     0  05:08        2.24
  JN_MS219             JUNCTION     0.26     0.92    -1.64     0  04:42        0.92
  JN_MS220             JUNCTION     0.23     0.87    -5.90     0  04:57        0.87
  JN_MS222             JUNCTION     0.64     2.31     7.07     0  04:55        2.31
  JN_MS225             JUNCTION     0.62     2.30    -7.91     0  05:06        2.30
  JN_MS226             JUNCTION     0.81     2.54    -4.60     0  05:01        2.54
  JN_MS228             JUNCTION     0.44     1.62   -11.79     0  05:05        1.62
  JN_MS230             JUNCTION     0.75     2.41    -4.68     0  04:56        2.41
  JN_MS231             JUNCTION     0.27     0.96    19.18     0  04:41        0.96
  JN_MS232             JUNCTION     0.48     1.54    -1.39     0  04:55        1.54
  JN_MS234             JUNCTION     0.36     1.20     6.77     0  04:47        1.20
  JN_MS235             JUNCTION     0.46     1.74    -4.95     0  04:59        1.74
  JN_MS236             JUNCTION     1.03     3.13    -5.84     0  05:12        3.13
  JN_MS237             JUNCTION     1.28     4.55   -11.50     0  05:28        4.55
  JN_MS238             JUNCTION     0.17     0.65     5.30     0  04:48        0.65
  JN_MS239             JUNCTION     1.12     3.69   -18.75     0  05:49        3.69
  JN_MS240             JUNCTION     0.35     1.35     3.59     0  04:54        1.35
  JN_MS240-1           JUNCTION     0.55     1.94   -15.20     0  05:17        1.94
  JN_MS241             JUNCTION     0.37     1.23    10.44     0  04:49        1.23
  JN_MS242             JUNCTION     0.28     0.96     4.22     0  04:45        0.96
  JN_MS245             JUNCTION     0.64     2.03     1.65     0  05:00        2.03
  JN_MS247             JUNCTION     0.43     1.38     3.34     0  04:55        1.38
  JN_MS249             JUNCTION     1.81     5.99     2.97     0  05:55        5.99
  JN_MS250             JUNCTION     0.41     1.55     3.61     0  04:55        1.55
  JN_MS251             JUNCTION     0.93     3.28   -12.22     0  05:29        3.28
  JN_MS254             JUNCTION     0.46     1.78    -2.29     0  04:48        1.78
  JN_MS255             JUNCTION     0.82     3.02    -9.17     0  05:08        3.01
  JN_MS257             JUNCTION     0.12     0.42    55.85     0  04:38        0.42
  JN_MS258             JUNCTION     0.32     1.16    18.03     0  04:44        1.16
  JN_MS259             JUNCTION     0.19     0.67    48.43     0  04:39        0.67
  JN_MS262             JUNCTION     0.50     1.80    18.13     0  04:47        1.80
  JN_MS263             JUNCTION     0.46     1.59    10.67     0  04:47        1.59
  JN_MS264             JUNCTION     0.78     2.70    11.59     0  04:47        2.70
  JN_MS265             JUNCTION     0.92     3.32    34.40     0  04:52        3.32
  JN_MSDP_TARP_001     JUNCTION    19.25    30.95   -97.48     1  06:00       30.95
  JN_MSDP_TARP_002     JUNCTION    14.93    24.37   -97.57     1  05:47       24.29
  JN_MSDP_TARP_003     JUNCTION    28.29    43.18   -97.77     1  05:48       43.15
  JN_MSDP_TARP_004     JUNCTION   127.88   167.80   -97.74     1  05:59      167.74
  JN_MSDP_TARP_005     JUNCTION   126.31   165.91   -97.77     1  05:52      165.89
  JN_MSDP_TARP_006     JUNCTION   125.94   165.49   -97.76     1  06:00      165.49
  JN_MSDP_TARP_007     JUNCTION   125.93   165.52   -97.73     1  06:00      165.52
  JN_MSDP_TARP_008     JUNCTION   125.77   165.35   -97.70     1  06:00      165.35
  JN_MSDP_TARP_009     JUNCTION   125.38   164.78   -97.78     1  05:52      164.77
  JN_MSDP_TARP_010     JUNCTION   124.80   164.03   -97.79     1  05:54      164.03
  JN_MSDP_TARP_011     JUNCTION   124.49   163.65   -97.78     1  05:58      163.63
  JN_MSDP_TARP_012     JUNCTION   124.44   163.57   -97.79     1  05:58      163.57
  JN_MSDP_TARP_013     JUNCTION   123.88   162.97   -97.76     1  05:56      162.92
  JN_MSDP_TARP_015     JUNCTION   123.51   162.48   -97.76     1  05:56      162.42
  JN_MSDP_TARP_016     JUNCTION   123.07   161.91   -97.80     1  05:56      161.89
  JN_MSDP_TARP_017     JUNCTION   123.02   161.89   -97.77     1  05:57      161.86
  JN_MSDP_TARP_018     JUNCTION   122.99   161.82   -97.81     1  05:57      161.81
  JN_MSDP_TARP_019     JUNCTION   122.25   161.03   -97.81     1  05:50      161.02
  JN_MSDP_TARP_020     JUNCTION   121.92   160.64   -97.81     1  06:00      160.64
  JN_MSDP_TARP_021     JUNCTION   121.23   159.91   -97.80     1  05:53      159.90
  JN_MSDP_TARP_022     JUNCTION   120.00   158.47   -97.81     1  05:48      158.46
  JN_MSDP_TARP_023     JUNCTION   120.45   158.99   -97.81     1  05:32      158.98
  JN_MSDP_TARP_024     JUNCTION   120.38   158.91   -97.81     1  05:32      158.90
  JN_MSDP_TARP_025     JUNCTION   120.90   159.55   -97.80     1  05:52      159.53
  JN_MSDP_TARP_026     JUNCTION   119.47   157.87   -97.80     1  05:48      157.86
  JN_MSDP_TARP_027     JUNCTION   119.21   157.58   -97.80     1  05:56      157.56
  JN_MSDP_TARP_028     JUNCTION   119.01   157.40   -97.78     1  05:20      157.37
  JN_MSDP_TARP_029     JUNCTION   118.65   156.92   -97.81     1  05:43      156.90
  JN_MSDP_TARP_030     JUNCTION   118.44   156.68   -97.79     1  05:44      156.63
  JN_MSDP_TARP_031     JUNCTION   118.32   156.51   -97.81     1  05:43      156.50
  JN_MSDP_TARP_032     JUNCTION   117.99   156.10   -97.81     1  05:27      156.09
  JN_MSDP_TARP_033     JUNCTION   117.83   156.09   -97.61     1  06:00      156.09
  JN_MSDP_TARP_034     JUNCTION   117.79   155.82   -97.81     1  05:27      155.81
  JN_MSDP_TARP_035     JUNCTION   117.30   155.14   -97.81     1  05:39      155.13
  JN_MSDP_TARP_036     JUNCTION   117.02   154.75   -97.80     1  05:39      154.74
  JN_MSDP_TARP_037     JUNCTION   116.93   154.67   -97.77     1  06:00      154.67
  JN_MSDP_TARP_038     JUNCTION   116.94   154.64   -97.79     1  05:39      154.63
  JN_MSDP_TARP_039     JUNCTION   117.01   154.73   -97.80     1  05:39      154.72
  JN_MSDP_TARP_040     JUNCTION   118.20   156.38   -97.79     1  05:27      156.37
  JN_MSDP_TARP_041     JUNCTION   118.14   156.32   -97.81     1  05:27      156.31
  JN_MSDP_TARP_042     JUNCTION   118.04   156.26   -97.78     1  05:27      156.24
  JN_MSDP_TARP_043     JUNCTION   117.49   155.71   -97.80     1  05:35      155.70
  JN_MSDP_TARP_044     JUNCTION   117.17   155.40   -97.79     1  05:52      155.40
  JN_MSDP_TARP_045     JUNCTION   117.08   155.54   -97.56     1  06:00      155.54
  JN_MSDP_TARP_046     JUNCTION   117.02   155.25   -97.78     1  05:34      155.24
  JN_MSDP_TARP_047     JUNCTION   116.87   155.12   -97.76     1  05:52      155.11
  JN_MSDP_TARP_048     JUNCTION   116.45   154.67   -97.79     1  05:35      154.67
  JN_MSDP_TARP_049     JUNCTION   116.11   154.30   -97.80     1  05:35      154.29
  JN_MSDP_TARP_050     JUNCTION   115.92   154.10   -97.79     1  05:34      154.09
  JN_MSDP_TARP_051     JUNCTION   115.82   154.01   -97.78     1  05:22      153.99
  JN_MSDP_TARP_052     JUNCTION   115.77   153.90   -97.82     1  05:14      153.90
  JN_MSDP_TARP_054     JUNCTION   115.74   153.87   -97.81     1  05:15      153.86
  JN_MSDP_TARP_055     JUNCTION   115.53   153.69   -97.77     1  05:31      153.64
  JN_MSDP_TARP_056     JUNCTION   115.44   153.56   -97.79     1  05:13      153.54
  JN_MSDP_TARP_057     JUNCTION   115.28   153.37   -97.79     1  05:22      153.37
  JN_MSDP_TARP_058     JUNCTION   114.96   152.99   -97.79     1  05:56      152.99
  JN_MSDP_TARP_059     JUNCTION   114.69   152.66   -97.79     1  05:56      152.64
  JN_MSDP_TARP_060     JUNCTION   114.59   152.53   -97.80     1  05:31      152.52
  JN_MSDP_TARP_061     JUNCTION   114.31   152.18   -97.81     1  05:31      152.17
  JN_MSDP_TARP_062     JUNCTION   114.19   152.05   -97.81     1  05:40      152.04
  JN_MSDP_TARP_063     JUNCTION   113.99   151.88   -97.79     1  05:30      151.87
  JN_MSDP_TARP_064     JUNCTION   113.59   151.45   -97.76     1  05:52      151.40
  JN_MSDP_TARP_065     JUNCTION   113.60   151.47   -97.76     1  05:52      151.42
  JN_MSDP_TARP_066     JUNCTION   113.61   151.47   -97.76     1  05:52      151.42
  JN_MSDP_TARP_067     JUNCTION   113.57   151.50   -97.70     1  05:53      151.43
  JN_MSDP_TARP_068     JUNCTION   113.18   151.09   -97.72     1  05:52      151.02
  JN_MSDP_TARP_069     JUNCTION   113.21   151.11   -97.72     1  05:53      151.05
  JN_MSDP_TARP_070     JUNCTION   113.46   151.22   -97.76     1  06:00      151.22
  JN_MSDP_TARP_071     JUNCTION   113.00   150.59   -97.80     1  05:26      150.58
  JN_MSDP_TARP_072     JUNCTION   112.93   150.50   -97.79     1  05:27      150.49
  JN_MSDP_TARP_073     JUNCTION   112.60   150.10   -97.80     1  05:27      150.09
  JN_MSDP_TARP_075     JUNCTION   112.27   149.73   -97.80     1  05:44      149.73
  JN_MSDP_TARP_076     JUNCTION   112.24   149.70   -97.80     1  05:44      149.69
  JN_MSDP_TARP_077     JUNCTION   111.80   149.21   -97.78     1  05:44      149.20
  JN_MSDP_TARP_078     JUNCTION   111.16   148.40   -97.81     1  05:24      148.39
  JN_MSDP_TARP_079     JUNCTION   109.99   147.03   -97.80     1  05:23      147.02
  JN_MSDP_TARP_080     JUNCTION   109.98   147.02   -97.80     1  05:23      147.01
  JN_MSDP_TARP_081     JUNCTION   109.34   146.31   -97.76     1  05:06      146.27
  JN_MSDP_TARP_082     JUNCTION   108.79   145.63   -97.74     1  06:00      145.63
  JN_MSDP_TARP_083     JUNCTION   108.69   145.52   -97.73     1  06:00      145.52
  JN_MSDP_TARP_084     JUNCTION   108.53   145.26   -97.78     1  05:22      145.23
  JN_MSDP_TARP_085     JUNCTION   108.09   144.73   -97.79     1  05:23      144.70
  JN_MSDP_TARP_086     JUNCTION   107.54   144.05   -97.80     1  05:23      144.04
  JN_MSDP_TARP_087     JUNCTION   107.32   143.79   -97.79     1  05:24      143.77
  JN_MSDP_TARP_088     JUNCTION   107.01   143.68   -97.54     1  06:00      143.68
  JN_MSDP_TARP_089     JUNCTION   106.73   143.04   -97.81     1  05:25      143.04
  JN_MSDP_TARP_090     JUNCTION   106.29   142.56   -97.81     1  05:10      142.56
  JN_MSDP_TARP_091     JUNCTION   105.82   142.02   -97.80     1  05:09      142.02
  JN_MSDP_TARP_092     JUNCTION   105.46   141.58   -97.80     1  05:52      141.57
  JN_MSDP_TARP_093     JUNCTION   105.05   141.10   -97.79     1  05:27      141.07
  JN_MSDP_TARP_094     JUNCTION   104.18   140.01   -97.79     1  05:27      139.97
  JN_MSDP_TARP_095     JUNCTION   103.91   139.71   -97.80     1  05:27      139.68
  JN_MSDP_TARP_096     JUNCTION   100.25   135.80   -97.80     1  05:39      135.79
  JN_MSDP_TARP_097     JUNCTION    98.14   133.39   -97.78     1  05:14      133.38
  JN_MSDP_TARP_098     JUNCTION    96.67   131.74   -97.73     1  05:14      131.73
  JN_MSDP_TARP_099     JUNCTION    95.34   130.12   -97.78     1  05:57      130.10
  JN_MSDP_TARP_100     JUNCTION    92.58   126.82   -97.78     1  05:13      126.77
  JN_MSDP_TARP_101     JUNCTION    90.29   124.01   -97.79     1  05:11      123.99
  JN_MSDP_TARP_102     JUNCTION    87.50   120.65   -97.79     1  05:19      120.65
  JN_MSDP_TARP_103     JUNCTION    85.34   118.11   -97.65     1  05:53      118.02
  JN_MSDP_TARP_104     JUNCTION    84.53   116.95   -97.76     1  05:10      116.95
  JN_MSDP_TARP_105     JUNCTION    83.17   115.32   -97.78     1  05:19      115.31
  JN_MSDP_TARP_106     JUNCTION    81.36   113.08   -97.78     1  05:18      113.05
  JN_MSDP_TARP_107     JUNCTION    79.68   110.94   -97.79     1  05:17      110.91
  JN_MSDP_TARP_108     JUNCTION    78.10   108.98   -97.80     1  05:52      108.95
  JN_MSDP_TARP_109     JUNCTION    76.15   106.66   -97.80     1  05:06      106.63
  JN_MSDP_TARP_110     JUNCTION    74.86   104.92   -97.79     1  05:05      104.91
  JN_MSDP_TARP_111     JUNCTION    74.63   104.67   -97.78     1  05:05      104.66
  JN_MSDP_TARP_112     JUNCTION    73.39   103.16   -97.77     1  05:05      103.16
  JN_MSDP_TARP_113     JUNCTION    73.21   102.96   -97.77     1  05:04      102.96
  JN_MSDP_TARP_114     JUNCTION    72.04   101.73   -97.76     1  05:07      101.69
  JN_MSDP_TARP_115     JUNCTION    71.07   100.58   -97.75     1  05:02      100.49
  JN_MSDP_TARP_116     JUNCTION    70.26    99.62   -97.77     1  05:01       99.57
  JN_MSDP_TARP_117     JUNCTION    69.68    98.92   -97.78     1  05:00       98.90
  JN_MSDP_TARP_118     JUNCTION    68.96    98.12   -97.69     1  06:00       98.12
  JN_MSDP_TARP_119     JUNCTION    68.34    97.30   -97.70     1  05:09       97.30
  JN_MSDP_TARP_120     JUNCTION    67.92    96.75   -97.69     1  05:44       96.75
  JN_MSDP_TARP_121     JUNCTION    96.34   193.09   -36.37     0  05:56      131.65
  JN_MSDP_TARP_122     JUNCTION    90.46   124.92   -97.76     1  05:25      124.88
  JN_MSDP_TARP_123     JUNCTION    87.30   121.07   -97.75     1  05:25      121.07
  JN_MSDP_TARP_124     JUNCTION    84.12   117.18   -97.71     1  05:25      117.08
  JN_MSDP_TARP_125     JUNCTION    83.27   116.03   -97.74     1  05:25      116.02
  JN_MSDP_TARP_126     JUNCTION    79.55   111.75   -97.44     1  06:00      111.75
  JN_MSDP_TARP_127     JUNCTION    77.47   109.07   -97.47     1  06:00      109.07
  JN_MSDP_TARP_128     JUNCTION    75.33   106.24   -97.64     1  06:00      106.24
  JN_MSDP_TARP_129     JUNCTION    73.85   104.23   -97.72     1  06:00      104.23
  JN_MSDP_TARP_130     JUNCTION    70.21    99.74   -97.61     1  06:00       99.74
  JN_MSDP_TARP_131     JUNCTION    68.07    96.84   -97.75     1  05:32       96.82
  JN_MSDP_TARP_132     JUNCTION    64.01    91.67   -97.76     1  05:34       91.64
  JN_MSDP_TARP_133     JUNCTION    63.00    90.36   -97.78     1  05:34       90.34
  JN_MSDP_TARP_134     JUNCTION    60.29    86.96   -97.77     1  05:35       86.95
  JN_MSDP_TARP_135     JUNCTION    57.29    83.01   -97.78     1  05:02       83.00
  JN_MSDP_TARP_136     JUNCTION    55.85    81.21   -97.79     1  05:37       81.20
  JN_MSDP_TARP_137     JUNCTION    50.13    73.69   -97.76     1  05:10       73.67
  JN_MSDP_TARP_138     JUNCTION    47.77    70.60   -97.73     1  05:26       70.57
  JN_MSDP_TARP_139     JUNCTION    42.39    63.49   -97.75     1  05:40       63.49
  JN_MSDP_TARP_140     JUNCTION   114.01   155.08   -97.68     1  05:50      155.04
  JN_MSDP_TARP_141     JUNCTION   111.08   151.66   -97.71     1  05:50      151.66
  JN_MSDP_TARP_142     JUNCTION   107.25   147.23   -97.73     1  06:00      147.23
  JN_MSDP_TARP_143     JUNCTION   102.89   142.11   -97.77     1  05:59      142.10
  JN_MSDP_TARP_144     JUNCTION   100.75   139.60   -97.79     1  05:55      139.60
  JN_MSDP_TARP_145     JUNCTION   101.51   140.46   -97.79     1  05:54      140.46
  JN_MSDP_TARP_146     JUNCTION   100.43   139.26   -97.79     1  05:55      139.26
  JN_MSDP_TARP_147     JUNCTION    99.17   137.92   -97.79     1  05:56      137.92
  JN_MSDP_TARP_148     JUNCTION   103.99   143.39   -97.76     1  05:06      143.36
  JN_MSDP_TARP_149     JUNCTION   101.00   139.82   -97.75     1  05:47      139.78
  JN_MSDP_TARP_150     JUNCTION    98.29   136.49   -97.75     1  05:45      136.48
  JN_MSDP_TARP_151     JUNCTION    98.52   136.70   -97.75     1  05:45      136.68
  JN_MSDP_TARP_152     JUNCTION    86.85   122.47   -97.72     1  05:54      122.47
  JN_MSDP_TARP_153     JUNCTION    81.85   116.16   -97.76     1  05:55      116.15
  JN_MSDP_TARP_154     JUNCTION    81.36   115.57   -97.76     1  05:55      115.56
  JN_MSDP_TARP_155     JUNCTION    79.56   113.29   -97.78     1  05:41      113.28
  JN_MSDP_TARP_156     JUNCTION    77.32   110.48   -97.75     1  05:57      110.41
  JN_MSDP_TARP_157     JUNCTION    75.65   108.39   -97.74     1  05:57      108.34
  JN_MSDP_TARP_158     JUNCTION    75.71   108.24   -97.72     1  05:57      108.20
  JN_MSDP_TARP_159     JUNCTION    73.95   106.20   -97.72     1  05:57      106.15
  JN_MSDP_TARP_160     JUNCTION    72.57   104.55   -97.70     1  05:57      104.46
  JN_MSDP_TARP_161     JUNCTION    71.33   102.99   -97.71     1  05:52      102.93
  JN_MSDP_TARP_162     JUNCTION    68.05    98.76   -97.73     1  05:59       98.75
  JN_MSDP_TARP_163     JUNCTION    65.71    95.78   -97.73     1  05:59       95.77
  JN_MSDP_TARP_164     JUNCTION    63.53    93.08   -97.72     1  05:59       93.04
  JN_MSDP_TARP_165     JUNCTION    58.21    85.81   -97.76     1  05:57       85.76
  JN_MSDP_TARP_166     JUNCTION    57.06    84.26   -97.75     1  05:53       84.21
  JN_MSDP_TARP_167     JUNCTION    56.25    83.18   -97.76     1  05:53       83.14
  JN_MSDP_TARP_168     JUNCTION    54.85    81.41   -97.74     1  05:55       81.41
  JN_MSDP_TARP_169     JUNCTION    53.62    79.80   -97.72     1  05:55       79.80
  JN_MSDP_TARP_170     JUNCTION    52.19    77.91   -97.75     1  05:59       77.90
  JN_MSDP_TARP_171     JUNCTION    52.33    78.08   -97.75     1  05:55       78.08
  JN_MSDP_TARP_172     JUNCTION    49.95    75.15   -97.71     1  05:57       75.07
  JN_MSDP_TARP_173     JUNCTION    47.40    71.67   -97.72     1  05:59       71.67
  JN_MSDP_TARP_174     JUNCTION    44.41    67.55   -97.77     1  05:53       67.53
  JN_MSDP_TARP_175     JUNCTION    41.52    63.55   -97.74     1  05:54       63.55
  JN_MSDP_TARP_176     JUNCTION    37.96    58.67   -97.73     1  05:57       58.61
  JN_MSDP_TARP_177     JUNCTION    35.12    54.64   -97.76     1  05:58       54.63
  JN_MSDP_TARP_178     JUNCTION    33.18    52.03   -97.75     1  05:59       51.97
  JN_MSDP_TARP_179     JUNCTION    31.11    48.99   -97.74     1  06:00       48.99
  JN_MSDP_TARP_180     JUNCTION     1.42     4.60   -17.72     0  05:01        4.60
  JN_MSDP_TARP_181     JUNCTION     0.82     2.79   -14.76     0  04:59        2.79
  JN_MSDP_TARP_182     JUNCTION     0.75     2.55    -7.08     0  04:50        2.55
  JN_MSDP_TARP_183     JUNCTION     0.50     1.72    -4.00     0  04:46        1.72
  JN_MSDP_TARP_184     JUNCTION    79.72   114.23   -97.61     1  05:46      114.21
  JN_MSDP_TARP_185     JUNCTION    69.37   101.39   -97.50     1  06:00      101.39
  JN_MSDP_TARP_186     JUNCTION    68.17    99.68   -97.54     1  05:45       99.66
  JN_MSDP_TARP_187     JUNCTION    66.58   129.60   -65.62     0  06:52       97.67
  JN_MSDP_TARP_188     JUNCTION    62.99    93.21   -97.51     1  05:54       93.21
  JN_MSDP_TARP_189     JUNCTION   106.34   146.15   -97.70     1  05:56      146.09
  JN_MSDP_TARP_190     JUNCTION   105.62   145.33   -97.71     1  05:48      145.26
  JN_MSDP_TARP_191     JUNCTION   103.59   143.01   -97.71     1  05:52      142.96
  JN_MSDP_TARP_192     JUNCTION   103.00   142.28   -97.74     1  05:54      142.26
  JN_MSDP_TARP_193     JUNCTION   101.82   140.89   -97.74     1  05:54      140.87
  JN_MSDP_TARP_194     JUNCTION    30.31    46.93   -97.61     1  06:00       46.93
  JN_MSDP_TARP_195     JUNCTION    28.93    44.73   -97.82     1  05:25       44.73
  JN_MSDP_TARP_196     JUNCTION    27.17    42.75   -97.82     1  05:28       42.75
  JN_MSDP_TARP_197     JUNCTION    25.86    41.02   -97.81     1  05:29       41.02
  JN_MSDP_TARP_198     JUNCTION    26.87    41.95   -97.82     1  05:38       41.95
  JN_MSDP_TARP_199     JUNCTION    24.52    38.82   -97.82     1  05:22       38.82
  JN_MSDP_TARP_200     JUNCTION   110.03   147.45   -97.80     1  05:28      147.45
  JN_MSDP_TARP_201     JUNCTION   124.61   163.83   -97.76     1  05:58      163.81
  JN_MSDP_TARP_211     JUNCTION    14.85    24.24   -97.59     1  05:47       24.17
  JN_MSDP_TARP_212     JUNCTION    20.58    32.86   -97.49     1  06:00       32.86
  JN_MSDP_TARP_213     JUNCTION    20.89    33.32   -97.52     1  06:00       33.32
  JN_MSDP_TARP_214     JUNCTION    21.07    33.42   -97.64     1  05:47       33.36
  JN_MSDP_TARP_215     JUNCTION    21.46    34.07   -97.64     1  05:47       33.96
  JN_MSDP_TARP_216     JUNCTION    28.21    43.79   -97.74     1  05:47       43.73
  JN_MSDP_TARP_223     JUNCTION   169.43   214.25   -97.68     1  05:59      214.12
  JN_MSDP_TARP_224     JUNCTION   167.54   212.20   -97.69     1  05:59      212.10
  JN_MSDP_TARP_225     JUNCTION   165.66   210.14   -97.71     1  05:59      210.09
  JN_MSDP_TARP_226     JUNCTION   164.18   208.50   -97.73     1  05:59      208.47
  JN_MSDP_TARP_227     JUNCTION   162.57   206.73   -97.73     1  05:59      206.68
  JN_MSDP_TARP_228     JUNCTION   161.61   205.74   -97.71     1  05:59      205.64
  JN_MSDP_TARP_229     JUNCTION   161.13   205.23   -97.72     1  05:59      205.17
  JN_MSDP_TARP_230     JUNCTION   160.18   204.08   -97.72     1  05:59      204.01
  JN_MSDP_TARP_231     JUNCTION   159.17   203.20   -97.72     1  05:50      203.11
  JN_MSDP_TARP_232     JUNCTION   126.53   166.26   -97.74     1  05:59      166.22
  JN_MSDP_TARP_233     JUNCTION   157.70   201.27   -97.73     1  05:59      201.21
  JN_MSDP_TARP_234     JUNCTION   157.21   201.17   -97.73     1  05:59      201.10
  JN_MSDP_TARP_235     JUNCTION   155.60   198.91   -97.73     1  05:59      198.84
  JN_MSDP_TARP_236     JUNCTION   154.62   198.48   -97.69     1  06:00      198.48
  JN_MSDP_TARP_237     JUNCTION   126.50   166.17   -97.74     1  05:52      166.10
  JN_MSDP_TARP_238     JUNCTION   153.51   196.56   -97.73     1  05:59      196.50
  JN_MSDP_TARP_240     JUNCTION   152.09   195.86   -97.64     1  06:00      195.86
  JN_MSDP_TARP_241     JUNCTION   128.20   168.26   -97.74     1  05:59      168.20
  JN_MSDP_TARP_242     JUNCTION   149.56   193.12   -97.71     1  06:00      193.12
  JN_MSDP_TARP_243     JUNCTION   147.04   190.44   -97.72     1  05:50      190.39
  JN_MSDP_TARP_244     JUNCTION   144.52   187.78   -97.71     1  05:50      187.71
  JN_MSDP_TARP_245     JUNCTION   123.44   162.48   -97.76     1  05:56      162.42
  JN_MSDP_TARP_246     JUNCTION    85.42   118.21   -97.65     1  05:53      118.16
  JN_MSDP_TARP_248     JUNCTION   141.99   185.10   -97.71     1  05:49      185.02
  JN_MSDP_TARP_249     JUNCTION   139.48   182.45   -97.69     1  05:50      182.36
  JN_MSDP_TARP_250     JUNCTION   137.08   179.90   -97.70     1  05:59      179.80
  JN_MSDP_TARP_251     JUNCTION   134.57   177.23   -97.70     1  05:50      177.14
  JN_MSDP_TARP_252     JUNCTION   132.05   174.56   -97.69     1  05:50      174.48
  JN_MSDP_TARP_253     JUNCTION   129.54   171.88   -97.70     1  05:59      171.82
  JN_MSDP_TARP_254     JUNCTION   127.03   169.24   -97.67     1  05:50      169.13
  JN_MSDP_TARP_255     JUNCTION   124.52   166.58   -97.66     1  05:50      166.48
  JN_MSDP_TARP_256     JUNCTION   122.00   164.05   -97.52     1  06:00      164.05
  JN_MSDP_TARP_257     JUNCTION   119.49   161.27   -97.62     1  06:00      161.27
  JN_MSDP_TARP_258     JUNCTION   117.67   159.29   -97.68     1  05:50      159.24
  JN_MSDP_TARP_259     JUNCTION   117.25   158.79   -97.68     1  05:50      158.72
  JN_MSDP_TARP_260     JUNCTION   116.87   158.35   -97.68     1  05:50      158.34
  JN_MSDP_TARP_261     JUNCTION    64.81    92.39   -97.75     1  05:53       92.35
  JN_MSDP_TARP_262     JUNCTION   116.47   157.92   -97.66     1  05:50      157.91
  JN_MSDP_TARP_263     JUNCTION   115.83   157.18   -97.68     1  05:50      157.12
  JN_MSDP_TARP_264     JUNCTION    62.50    89.51   -97.77     1  05:52       89.46
  JN_MSDP_TARP_265     JUNCTION   115.52   156.81   -97.68     1  05:50      156.75
  JN_MSDP_TARP_266     JUNCTION    60.68    87.13   -97.76     1  05:55       87.10
  JN_MSDP_TARP_267     JUNCTION    40.78    60.87   -97.80     1  05:56       60.85
  JN_MSDP_TARP_268     JUNCTION    42.05    62.65   -97.76     1  05:56       62.59
  JN_MSDP_TARP_269     JUNCTION    44.72    66.21   -97.76     1  05:55       66.18
  JN_MSDP_TARP_270     JUNCTION    45.84    67.69   -97.76     1  05:56       67.67
  JN_MSDP_TARP_271     JUNCTION    48.92    71.82   -97.73     1  05:46       71.80
  JN_MSDP_TARP_272     JUNCTION    58.69    84.82   -97.52     1  06:00       84.82
  JN_MSDP_TARP_273     JUNCTION    49.63    72.77   -97.72     1  05:55       72.71
  JN_MSDP_TARP_274     JUNCTION    53.14    86.66   -88.46     0  07:22       77.58
  JN_MSDP_TARP_275     JUNCTION    57.42    83.14   -97.55     1  06:00       83.14
  JN_MSDP_TARP_276     JUNCTION    36.69    55.49   -97.78     1  06:00       55.49
  JN_MSDP_TARP_277     JUNCTION    36.29    55.08   -97.77     1  05:59       55.03
  JN_MSDP_TARP_278     JUNCTION   108.82   149.08   -97.68     1  05:57      149.02
  JN_MSDP_TARP_279     JUNCTION   108.69   148.90   -97.69     1  05:57      148.88
  JN_MSDP_TARP_280     JUNCTION    29.05    45.02   -97.70     1  06:00       45.02
  JN_MSDP_TARP_281     JUNCTION   106.98   146.97   -97.64     1  06:00      146.97
  JN_MSDP_TARP_282     JUNCTION   106.03   145.83   -97.69     1  06:00      145.83
  JN_MSDP_TARP_283     JUNCTION   106.85   146.78   -97.70     1  06:00      146.78
  JN_MSDP_TARP_284     JUNCTION   105.53   145.26   -97.68     1  05:48      145.16
  JN_MSDP_TARP_285     JUNCTION   105.37   145.00   -97.73     1  05:57      144.93
  JN_MSDP_TARP_286     JUNCTION   103.62   143.07   -97.68     1  05:52      143.00
  JN_MSDP_TARP_287     JUNCTION    92.65   129.71   -97.70     1  05:54      129.66
  JN_MSDP_TARP_288     JUNCTION    90.74   127.31   -97.69     1  05:54      127.28
  JN_MSDP_TARP_289     JUNCTION    88.47   124.49   -97.69     1  05:55      124.47
  JN_MSDP_TARP_290     JUNCTION    88.11   124.11   -97.68     1  05:54      124.07
  JN_MSDP_TARP_291     JUNCTION    87.99   124.02   -97.59     1  06:00      124.02
  JN_MSDP_TARP_292     JUNCTION    85.39   121.14   -97.65     1  05:54      121.10
  JN_MSDP_TARP_293     JUNCTION    84.32   119.91   -97.64     1  05:46      119.89
  JN_MSDP_TARP_294     JUNCTION    83.30   118.67   -97.64     1  05:45      118.66
  JN_MSDP_TARP_295     JUNCTION    64.33    94.76   -97.49     1  05:54       94.73
  JN_MSDP_TARP_296     JUNCTION    82.30   117.46   -97.61     1  05:46      117.39
  JN_MSDP_TARP_297     JUNCTION    81.30   116.21   -97.61     1  05:46      116.16
  JN_MSDP_TARP_298     JUNCTION    70.81   103.30   -97.42     1  06:00      103.30
  JN_MSDP_TARP_299     JUNCTION    72.34   105.12   -97.55     1  05:46      105.08
  JN_MSDP_TARP_300     JUNCTION    73.89   107.07   -97.56     1  05:45      107.01
  JN_MSDP_TARP_301     JUNCTION    75.44   109.01   -97.58     1  05:45      108.97
  JN_MSDP_TARP_302     JUNCTION    76.99   110.96   -97.58     1  05:45      110.90
  JN_MSDP_TARP_303     JUNCTION    78.55   112.91   -97.59     1  05:46      112.86
  JN_MSDP_TARP_304     JUNCTION    86.62   122.23   -97.69     1  05:55      122.19
  JN_MSDP_TARP_305     JUNCTION    85.29   120.57   -97.70     1  05:54      120.53
  JN_MSDP_TARP_306     JUNCTION    82.67   117.25   -97.72     1  05:55      117.23
  JN_MSDP_TARP_307     JUNCTION    76.94   110.04   -97.73     1  05:57      109.98
  JN_MSDP_TARP_308     JUNCTION    73.90   106.67   -97.70     1  05:57      106.61
  JN_MSDP_TARP_309     JUNCTION    71.05   102.68   -97.69     1  05:52      102.60
  JN_MSDP_TARP_310     JUNCTION    63.18    92.59   -97.74     1  05:59       92.53
  JN_MSDP_TARP_311     JUNCTION    62.20    91.35   -97.69     1  06:00       91.35
  JN_MSDP_TARP_312     JUNCTION    59.71    88.25   -97.52     1  06:00       88.25
  JN_MSDP_TARP_313     JUNCTION    58.79    86.99   -97.56     1  06:00       86.99
  JN_MSDP_TARP_314     JUNCTION    29.75    47.42   -97.71     1  04:41       47.37
  JN_MSDP_TARP_315     JUNCTION     0.75     2.53   -13.01     0  04:57        2.53
  JN_MSDP_TARP_316     JUNCTION     0.75     2.54   -11.54     0  04:54        2.54
  JN_MSDP_TARP_317     JUNCTION     0.75     2.54    -9.54     0  04:53        2.54
  JN_MSDP_TARP_318     JUNCTION   116.95   154.64   -97.80     1  05:39      154.64
  JN_MSDP_TARP_319     JUNCTION   119.00   157.36   -97.78     1  05:56      157.33
  JN_MSDP_TARP_320     JUNCTION   118.21   156.41   -97.78     1  05:27      156.37
  JN_MSDP_TARP_321     JUNCTION   106.89   143.22   -97.81     1  05:25      143.21
  JN_MSDP_TARP_322     JUNCTION   104.07   139.92   -97.76     1  05:27      139.88
  JN_MSDP_TARP_323     JUNCTION   102.62   138.39   -97.79     1  05:18      138.36
  JN_MSDP_TARP_324     JUNCTION   102.06   137.77   -97.82     1  05:18      137.75
  JN_MSDP_TARP_325     JUNCTION   115.68   153.99   -97.63     1  06:00      153.99
  JN_MSDP_TARP_326     JUNCTION   114.38   152.26   -97.81     1  05:31      152.26
  JN_MSDP_TARP_327     JUNCTION   114.20   152.12   -97.77     1  05:34      152.10
  JN_MSDP_TARP_328     JUNCTION   113.53   151.38   -97.80     1  05:53      151.37
  JN_MSDP_TARP_329     JUNCTION   113.17   151.07   -97.73     1  05:52      151.00
  JN_MSDP_TARP_330     JUNCTION   113.61   151.53   -97.71     1  05:52      151.46
  JN_MSDP_TARP_331     JUNCTION   113.59   151.32   -97.81     1  05:19      151.31
  JN_MSDP_TARP_332     JUNCTION   113.35   151.08   -97.77     1  05:35      151.07
  JN_MSDP_TARP_333     JUNCTION   170.92   215.88   -97.62     1  06:00      215.88
  JN_MSDP_TARP_334     JUNCTION   166.59   211.34   -97.46     1  06:00      211.34
  JN_MSDP_TARP_343     JUNCTION   173.01   217.99   -97.72     1  05:59      217.91
  JN_MSDP_TARP_344     JUNCTION   173.25   218.26   -97.70     1  05:59      218.16
  JN_MSDP_TARP_345     JUNCTION    51.77    58.93   -97.78     1  05:42       58.92
  JN_MSDP_TARP_346     JUNCTION   126.73   166.54   -97.76     1  05:59      166.52
  JN_MSDP_TARP_347     JUNCTION    88.26   121.76   -97.74     1  05:53      121.73
  JN_MSDP_TARP_348     JUNCTION    42.09    62.29   -97.72     1  06:00       62.29
  JN_MSDP_TARP_349     JUNCTION    67.82    96.66   -97.69     1  05:44       96.65
  OFALL-10             OUTFALL      0.00     0.00   100.00     0  00:00        0.00
  STOR-10              STORAGE    162.28   206.23   -97.77     1  05:59      206.23
  
  
  *******************
  Node Inflow Summary
  *******************
  
  -------------------------------------------------------------------------------------------------
                                  Maximum  Maximum                  Lateral       Total        Flow
                                  Lateral    Total  Time of Max      Inflow      Inflow     Balance
                                   Inflow   Inflow   Occurrence      Volume      Volume       Error
  Node                 Type           CFS      CFS  days hr:min    10^6 gal    10^6 gal     Percent
[...]
  C_MSDP_TARP_068            24.93     24.93     24.94      0.01         0.01
  C_MSDP_TARP_069            24.92     24.92     24.93      0.01         0.02
  C_MSDP_TARP_070            25.19     25.19     25.20      0.01         0.09
  C_MSDP_TARP_071            25.17     25.17     25.19      0.01         0.02
  C_MSDP_TARP_072            23.81     23.82     23.86      0.01         0.09
  C_MSDP_TARP_073            23.75     23.75     23.82      0.01         0.07
  C_MSDP_TARP_074            23.08     23.08     23.12      0.01         0.01
  C_MSDP_TARP_075            25.12     25.12     25.14      0.01         0.14
  C_MSDP_TARP_076            25.00     25.00     25.00      3.70         9.73
  C_MSDP_TARP_077            24.61     24.63     24.63      0.01         0.26
  C_MSDP_TARP_078            25.22     25.22     25.22      0.01         0.06
  C_MSDP_TARP_079            20.36     20.36     20.47      0.01         0.01
  C_MSDP_TARP_080            19.85     19.85     19.91      0.01         0.01
  C_MSDP_TARP_081            19.75     19.75     19.77      0.01         0.01
  C_MSDP_TARP_082            19.93     19.93     19.99      0.01         0.01
  C_MSDP_TARP_083            25.89     25.89     25.91      0.05         0.22
  C_MSDP_TARP_084            24.28     24.28     24.29      0.01         0.01
  C_MSDP_TARP_085            19.83     19.83     20.11      0.01         0.01
  C_MSDP_TARP_086            23.49     23.49     23.52      0.01         0.01
  C_MSDP_TARP_087            23.47     23.47     23.49      0.01         0.01
  C_MSDP_TARP_088            22.95     22.95     23.09      0.01         0.01
  C_MSDP_TARP_089            22.92     22.92     22.95      0.01         0.01
  C_MSDP_TARP_090            22.86     22.86     22.88      0.01         0.28
  C_MSDP_TARP_091            24.73     24.73     24.75      0.01         0.01
  C_MSDP_TARP_092            18.39     18.39     18.41      0.01         0.01
  C_MSDP_TARP_093            25.16     25.16     25.17      0.01         0.01
  C_MSDP_TARP_094            24.38     24.39     24.52      0.01         0.07
  C_MSDP_TARP_095            24.29     24.29     24.38      0.01         0.01
  C_MSDP_TARP_096            23.01     23.01     23.02      0.01         0.01
  C_MSDP_TARP_097            20.81     20.81     21.67      0.01         0.01
  C_MSDP_TARP_099            20.52     20.52     20.53      0.01         0.01
  C_MSDP_TARP_100            25.22     25.22     25.26      0.01         0.01
  C_MSDP_TARP_103            25.26     25.26     25.29      0.01         0.01
  C_MSDP_TARP_105            25.26     25.26     25.39      0.01         0.01
  C_MSDP_TARP_106            24.36     24.36     24.37      0.01         0.01
  C_MSDP_TARP_107            25.07     25.07     25.08      0.01         0.01
  C_MSDP_TARP_108            25.05     25.05     25.07      0.01         0.03
  C_MSDP_TARP_109            25.04     25.04     25.05      0.01         0.21
  C_MSDP_TARP_110            25.02     25.02     25.04      0.01         0.09
  C_MSDP_TARP_111            25.02     25.02     25.02      0.01         0.04
  C_MSDP_TARP_112            25.01     25.01     25.02      0.01         0.09
  C_MSDP_TARP_113            24.99     24.99     25.01      0.01         0.05
  C_MSDP_TARP_114            24.98     24.98     24.99      0.01         0.18
  C_MSDP_TARP_115            24.20     24.20     24.29      0.01         0.01
  C_MSDP_TARP_116            23.80     23.80     23.89      0.01         0.01
  C_MSDP_TARP_117            23.51     23.51     23.64      0.01         0.01
  C_MSDP_TARP_118            20.51     20.51     20.63      0.01         0.01
  C_MSDP_TARP_119            20.45     20.45     20.51      0.01         0.01
  C_MSDP_TARP_120            24.98     24.98     24.98      0.01         0.04
  C_MSDP_TARP_121            24.88     24.88     24.89      0.01         0.02
  C_MSDP_TARP_122            24.85     24.85     24.85      0.01         0.02
  C_MSDP_TARP_123            24.82     24.82     24.82      0.01         0.02
  C_MSDP_TARP_124            20.63     20.63     20.81      0.01         0.01
  C_MSDP_TARP_125            20.63     20.63     20.63      0.01         0.01
  C_MSDP_TARP_128            24.96     24.96     24.97      0.51         0.01
  C_MSDP_TARP_129            24.95     24.95     24.96      0.35         0.01
  C_MSDP_TARP_130            21.84     21.84     21.91      0.01         0.01
  C_MSDP_TARP_131            24.95     24.95     24.95      0.01         0.06
  C_MSDP_TARP_132            24.83     24.83     24.85      0.01         0.01
  C_MSDP_TARP_133            24.82     24.82     24.83      0.01         0.03
  C_MSDP_TARP_134            24.95     24.95     24.95      0.01         0.04
  C_MSDP_TARP_135            25.11     25.11     25.19      0.01         0.01
  C_MSDP_TARP_136            25.11     25.11     25.11      0.01         1.16
  C_MSDP_TARP_137            25.00     25.00     25.15      0.01         0.01
  C_MSDP_TARP_138            24.94     24.94     24.96      0.01         0.01
  C_MSDP_TARP_139            24.37     24.37     24.46      0.01         0.01
  C_MSDP_TARP_140            22.78     22.78     22.86      0.01         0.01
  C_MSDP_TARP_141            22.60     22.60     22.69      0.01         0.01
  C_MSDP_TARP_142            24.98     24.98     24.98      1.88         0.16
  C_MSDP_TARP_143            24.97     24.97     24.98      1.94         0.06
  C_MSDP_TARP_144            24.91     24.91     24.92      0.54         0.04
  C_MSDP_TARP_145            24.91     24.91     24.91      1.59         0.07
  C_MSDP_TARP_146            22.59     22.59     22.60      0.01         0.01
  C_MSDP_TARP_147            23.79     23.79     23.84      0.01         0.01
  C_MSDP_TARP_148            23.71     23.71     23.79      0.01         0.01
  C_MSDP_TARP_149            23.63     23.63     23.71      0.01         0.01
  C_MSDP_TARP_150            21.54     21.54     21.90      0.01         0.01
  C_MSDP_TARP_151            23.04     23.04     23.07      0.01         0.02
  C_MSDP_TARP_152            22.03     22.03     22.21      0.01         0.01
  C_MSDP_TARP_153            22.02     22.02     22.03      0.01         0.01
  C_MSDP_TARP_154            25.20     25.20     25.21      0.01         0.19
  C_MSDP_TARP_155            23.01     23.02     23.01      0.01         0.01
  C_MSDP_TARP_156            23.02     23.02     23.02      0.01         0.05
  C_MSDP_TARP_157            23.13     23.13     23.18      0.01         0.01
  C_MSDP_TARP_158            21.36     21.36     21.40      0.01         0.01
  C_MSDP_TARP_159            21.40     21.40     21.76      0.01         0.01
  C_MSDP_TARP_160            22.87     22.87     22.94      0.01         0.01
  C_MSDP_TARP_161            23.54     23.54     23.63      0.01         0.01
  C_MSDP_TARP_162            23.46     23.46     23.54      0.01         0.01
  C_MSDP_TARP_163            23.34     23.34     23.46      0.01         0.01
  C_MSDP_TARP_164            23.27     23.27     23.34      0.01         0.01
  C_MSDP_TARP_165            26.81     26.81     26.83      0.01         0.01
  C_MSDP_TARP_166            22.18     22.18     22.31      0.01         0.01
  C_MSDP_TARP_167            24.02     24.02     24.28      0.01         0.01
  C_MSDP_TARP_168            23.75     23.75     24.02      0.01         0.01
  C_MSDP_TARP_169            23.46     23.46     23.63      0.01         0.01
  C_MSDP_TARP_170            23.42     23.42     23.46      0.01         0.01
  C_MSDP_TARP_171            23.09     23.09     23.19      0.01         0.01
  C_MSDP_TARP_172            22.97     22.97     23.09      0.01         0.01
  C_MSDP_TARP_173            22.86     22.86     22.97      0.01         0.01
  C_MSDP_TARP_174            24.81     24.81     24.81      2.42         0.09
  C_MSDP_TARP_175            24.80     24.80     24.81      0.52         0.15
  C_MSDP_TARP_176            25.85     25.85     25.85      0.01         8.77
  C_MSDP_TARP_177            25.88     25.88     25.89      0.01         0.01
  C_MSDP_TARP_178            25.83     25.83     25.88      0.01         0.06
  C_MSDP_TARP_179            24.87     24.87     24.88      0.01         0.01
  C_MSDP_TARP_180            24.90     24.90     24.90      0.01         0.01
  C_MSDP_TARP_181            24.89     24.89     24.90      0.01         0.04
  C_MSDP_TARP_182            19.46     19.46     19.66      0.01         0.01
  C_MSDP_TARP_184            24.96     24.96     24.97      0.01         0.33
  C_MSDP_TARP_185            25.22     25.23     25.22      0.01         0.10
  C_MSDP_TARP_186            25.81     25.81     25.85      0.01         0.01
  C_MSDP_TARP_187            25.81     25.81     25.81      0.01         6.94
  C_MSDP_TARP_188            24.79     24.79     24.79      0.01         0.04
  C_MSDP_TARP_189            24.28     24.28     24.36      0.01         0.01
  C_MSDP_TARP_190            24.26     24.26     24.28      0.01         0.01
  C_MSDP_TARP_191            23.90     23.90     23.91      0.01         0.08
  C_MSDP_TARP_192            24.95     24.95     24.95      0.01         0.07
  C_MSDP_TARP_193            24.91     24.91     24.91      1.70         0.06
  C_MSDP_TARP_194            23.99     23.99     24.15      0.01         0.01
  C_MSDP_TARP_195            23.90     23.90     23.99      0.01         0.01
  C_MSDP_TARP_196            26.89     26.89     26.89      0.01         0.01
  C_MSDP_TARP_197            23.01     23.01     23.17      0.01         0.01
  C_MSDP_TARP_198            25.21     25.21     25.21      0.01         8.87
  C_MSDP_TARP_199            24.98     24.98     24.98      1.89         6.16
  C_MSDP_TARP_200            24.87     24.87     24.87      0.01         0.02
  C_MSDP_TARP_201            24.85     24.85     24.87      0.01         0.01
  C_MSDP_TARP_202            22.08     22.08     22.13      0.01         0.05
  C_MSDP_TARP_203            21.98     21.98     22.08      0.01         0.01
  C_MSDP_TARP_204            21.91     21.91     21.98      0.01         0.01
  C_MSDP_TARP_205            21.61     21.61     21.68      0.01         0.01
  C_MSDP_TARP_206            21.60     21.60     21.61      0.01         0.01
  C_MSDP_TARP_207            21.39     21.39     21.60      0.01         0.01
  C_MSDP_TARP_208            21.13     21.13     21.39      0.01         0.01
  C_MSDP_TARP_209            20.82     20.82     21.13      0.01         0.01
  C_MSDP_TARP_210            20.47     20.47     20.82      0.01         0.01
  C_MSDP_TARP_211            20.11     20.11     20.47      0.01         0.01
  C_MSDP_TARP_212            19.66     19.66     19.83      0.01         0.01
  C_MSDP_TARP_213            19.33     19.33     19.46      0.01         0.01
  C_MSDP_TARP_216            25.10     25.10     25.11      0.01         0.02
  C_MSDP_TARP_217            25.08     25.08     25.10      0.01         0.01
  C_MSDP_TARP_218            24.93     24.93     24.94      0.01         0.01
  C_MSDP_TARP_219            24.92     24.92     24.93      0.01         0.01
  C_MSDP_TARP_220            21.68     21.68     21.84      0.01         0.01
  C_MSDP_TARP_221            25.68     25.68     26.07      0.01         0.01
  C_MSDP_TARP_222            24.96     24.96     25.00      0.01         0.01
  C_MSDP_TARP_223            24.46     24.46     24.56      0.01         0.01
  C_MSDP_TARP_226            24.79     24.79     24.80      0.01         0.02
  C_MSDP_TARP_227            24.78     24.78     24.79      0.01         0.34
  C_MSDP_TARP_228            24.69     24.69     24.70      0.01         0.04
  C_MSDP_TARP_229            24.69     24.69     24.69      0.01         0.05
  C_MSDP_TARP_230            24.65     24.65     24.66      0.01         0.25
  C_MSDP_TARP_231            25.11     25.11     25.11      0.01         0.08
  C_MSDP_TARP_232            25.11     25.11     25.11      0.01         0.49
  C_MSDP_TARP_233            25.10     25.10     25.11      0.01         1.30
  C_MSDP_TARP_234            25.08     25.08     25.10      0.01         0.01
  C_MSDP_TARP_235            24.07     24.07     24.16      0.01         0.01
  C_MSDP_TARP_236            24.16     24.16     24.17      3.03        11.50
  C_MSDP_TARP_237            23.17     23.17     23.27      0.01         0.06
  C_MSDP_TARP_238            23.12     23.12     23.17      0.01         0.04
  C_MSDP_TARP_239            22.94     22.94     23.12      0.01         0.05
  C_MSDP_TARP_240            21.39     21.39     21.54      0.01         0.01
  C_MSDP_TARP_241            22.69     22.69     22.86      0.01         0.01
  C_MSDP_TARP_242            22.60     22.60     22.69      0.01         0.01
  C_MSDP_TARP_243            25.19     25.19     25.21      0.01         0.02
  C_MSDP_TARP_244            25.19     25.19     25.19      0.01         0.01
  C_MSDP_TARP_246            23.17     23.17     23.25      0.01         0.01
  C_MSDP_TARP_247            23.25     23.25     23.41      0.01         0.01
  C_MSDP_TARP_248            23.41     23.41     23.42      0.01         0.01
  C_MSDP_TARP_249            24.98     24.98     24.99      0.01         0.03
  C_MSDP_TARP_250            24.98     24.98     24.98      0.01         0.10
  C_MSDP_TARP_251            24.95     24.95     24.95      0.01         0.01
  C_MSDP_TARP_252            24.95     24.96     24.95      5.75         9.03
  C_MSDP_TARP_253            24.95     24.95     24.95      4.71        10.59
  C_MSDP_TARP_254            24.94     24.94     24.95      0.01         0.01
  C_MSDP_TARP_255            24.92     24.92     24.92      0.01         0.05
  C_MSDP_TARP_257            24.91     24.91     24.91      1.60         0.11
  C_MSDP_TARP_258            25.83     25.83     25.84      0.13         2.13
  C_MSDP_TARP_259            25.84     25.84     25.85      0.01         1.58
  C_MSDP_TARP_260            25.85     25.85     25.85      0.01         2.23
  C_MSDP_TARP_261            25.85     25.85     25.85      0.01        11.22
  C_MSDP_TARP_262            25.81     25.81     25.81      0.01        12.27
  C_MSDP_TARP_264            24.76     24.76     24.78      0.01         0.01
  C_MSDP_TARP_265            24.75     24.75     24.76      0.01         0.01
  C_MSDP_TARP_266            24.72     24.72     24.73      0.01         0.20
  C_MSDP_TARP_267            24.70     24.70     24.72      0.01         0.03
  C_MSDP_TARP_268            24.46     24.52     24.53      0.01         0.15
  C_MSDP_TARP_269            24.38     24.38     24.39      0.01         0.01
  C_MSDP_TARP_270            24.38     24.38     24.38      0.01         0.01
  C_MSDP_TARP_271            23.89     23.89     24.02      0.01         0.01
  C_MSDP_TARP_272            23.12     23.12     23.13      0.01         0.01
  C_MSDP_TARP_273            23.02     23.02     23.04      0.01         0.03
  C_MSDP_TARP_274            23.19     23.19     23.42      0.01         0.01
  C_MSDP_TARP_275            25.22     25.22     25.26      0.01         0.01
  C_MSDP_TARP_276            25.21     25.21     25.22      0.01         0.01
  C_MSDP_TARP_277            24.21     24.21     24.25      0.01         0.01
  C_MSDP_TARP_278            24.15     24.15     24.21      0.01         0.01
  C_MSDP_TARP_279            23.63     23.63     23.91      0.01         0.01
  C_MSDP_TARP_280            24.68     24.68     24.69      0.01         0.25
  C_MSDP_TARP_281            24.04     24.04     24.07      0.01         0.01
  C_MSDP_TARP_282            24.00     24.00     24.04      0.01         0.01
  C_MSDP_TARP_283            23.94     23.94     24.00      0.01         0.01
  C_MSDP_TARP_284            23.90     23.90     23.94      0.01         0.01
  C_MSDP_TARP_285            26.79     26.79     26.81      0.01         0.01
  C_MSDP_TARP_286            26.98     26.98     27.03      0.01         0.01
  C_MSDP_TARP_288            23.84     23.84     23.90      0.01         0.01
  C_MSDP_TARP_289            26.78     26.78     26.79      0.01         0.01
  C_MSDP_TARP_290            26.77     26.77     26.78      0.01         0.01
  C_MSDP_TARP_291            26.75     26.75     26.77      0.01         0.01
  C_MSDP_TARP_292            26.74     26.74     26.75      0.01         0.01
  C_MSDP_TARP_293            26.73     26.73     26.74      0.01         0.01
  C_MSDP_TARP_294            26.72     26.72     26.73      0.01         0.01
  C_MSDP_TARP_295            26.70     26.70     26.72      0.01         0.01
  C_MSDP_TARP_296            26.68     26.68     26.70      0.01         0.01
  C_MSDP_TARP_297            26.57     26.57     26.68      0.01         0.01
  C_MSDP_TARP_298            26.42     26.42     26.57      0.01         0.01
  C_MSDP_TARP_299            26.27     26.27     26.42      0.01         0.01
  C_MSDP_TARP_300            26.95     26.95     26.98      0.01         0.01
  C_MSDP_TARP_301            26.91     26.91     26.95      0.01         0.01
  C_MSDP_TARP_302            26.89     26.89     26.91      0.01         0.01
  C_MSDP_TARP_303            26.86     26.86     26.89      0.01         0.01
  C_MSDP_TARP_304            26.83     26.83     26.86      0.01         0.01
  C_MSDP_TARP_305            26.81     26.81     26.83      0.01         0.01
  C_MSDP_TARP_306            26.80     26.80     26.81      0.01         0.01
  C_MSDP_TARP_307            26.78     26.78     26.80      0.01         0.01
  C_MSDP_TARP_308            26.85     26.85     26.89      0.01         0.01
  C_MSDP_TARP_309            26.83     26.83     26.85      0.01         0.01
  C_MSDP_TARP_310            26.14     26.14     26.27      0.01         0.01
  C_MSDP_TARP_311            25.98     25.98     26.14      0.01         0.01
  C_MSDP_TARP_312            25.87     25.87     25.98      0.01         0.01
  C_MSDP_TARP_313            24.74     24.74     24.75      0.01         0.01
  C_MSDP_TARP_314            24.73     24.73     24.74      0.01         0.01
  C_MSDP_TARP_315            24.72     24.72     24.73      0.01         0.01
  C_MSDP_TARP_316            21.76     21.76     21.81      0.01         0.01
  C_MSDP_TARP_317            21.81     21.81     22.06      0.01         0.01
  C_MSDP_TARP_318            22.06     22.06     22.13      0.01         0.01
  C_MSDP_TARP_319            22.13     22.13     22.33      0.01         0.01
  C_MSDP_TARP_320            22.33     22.33     22.38      0.01         0.01
  C_MSDP_TARP_321            22.38     22.38     22.62      0.01         0.01
  C_MSDP_TARP_322            22.62     22.62     22.96      0.01         0.01
  C_MSDP_TARP_323            22.96     22.96     23.01      0.01         0.01
  C_MSDP_TARP_327            27.00     27.00     27.09      0.01         0.01
  C_MSDP_TARP_328            26.94     26.94     27.00      0.01         0.01
  C_MSDP_TARP_329            20.53     20.53     26.21      0.01         0.01
  C_MSDP_TARP_330            25.27     25.27     25.33      0.01         0.01
  C_MSDP_TARP_331            25.34     25.35     25.37      0.01         0.06
  C_MSDP_TARP_333            27.08     27.09     27.11      0.01         0.01
  C_MSDP_TARP_334            20.97     20.97     21.39      0.01         0.01
  C_MSDP_TARP_335            20.66     20.66     20.97      0.01         0.01
  C_MSDP_TARP_341            26.22     26.22     26.78      0.01         0.01
  C_MSDP_TARP_342            24.57     24.57     25.21      0.01         0.01
  LF21                        6.01      8.23      6.01      8.53         6.01
  LF39                        0.01      2.99      0.01      3.70         0.01
  LF47                        0.01      0.01      0.01      0.45         0.01
  

  Analysis begun on:  Fri Nov 29 11:11:33 2019
  Analysis ended on:  Fri Nov 29 11:12:49 2019
  Total elapsed time: 00:01:16