
  EPA STORM WATER MANAGEMENT MODEL - VERSION 5.1 (Build 5.1.013)
  --------------------------------------------------------------

  WARNING 01: wet weather time step reduced to recording interval for Rain Gage CALUMETWRP
  WARNING 03: negative offset ignored for Link C_MSDP_TARP_069
  WARNING 03: negative offset ignored for Link C_MSDP_TARP_099
  WARNING 03: negative offset ignored for Link C_MSDP_TARP_137
  WARNING 03: negative offset ignored for Link C_MSDP_TARP_196
  WARNING 03: negative offset ignored for Link C_MSDP_TARP_226
  WARNING 03: negative offset ignored for Link C_MSDP_TARP_226
  WARNING 03: negative offset ignored for Link C_MSDP_TARP_236
  WARNING 04: minimum elevation drop used for Conduit C_MSDP_TARP_236
  WARNING 03: negative offset ignored for Link C_MSDP_TARP_238
  WARNING 03: negative offset ignored for Link C_MSDP_TARP_239
  WARNING 03: negative offset ignored for Link C_MSDP_TARP_251
  WARNING 03: negative offset ignored for Link C_MSDP_TARP_252
  WARNING 04: minimum elevation drop used for Conduit C_MSDP_TARP_252
  WARNING 03: negative offset ignored for Link C_MSDP_TARP_253
  WARNING 03: negative offset ignored for Link C_MSDP_TARP_253
  WARNING 03: negative offset ignored for Link C_MSDP_TARP_255
  WARNING 03: negative offset ignored for Link C_MSDP_TARP_295
  WARNING 03: negative offset ignored for Link C_MSDP_TARP_328
  WARNING 03: negative offset ignored for Link C_MSDP_TARP_342
  WARNING 03: negative offset ignored for Link DUMMYOUTFALLLINK
  WARNING 02: maximum depth increased for Node JN_MSDP_TARP_006
  WARNING 02: maximum depth increased for Node JN_MSDP_TARP_012
  WARNING 02: maximum depth increased for Node JN_MSDP_TARP_032
  WARNING 02: maximum depth increased for Node JN_MSDP_TARP_040
  WARNING 02: maximum depth increased for Node JN_MSDP_TARP_041
  WARNING 02: maximum depth increased for Node JN_MSDP_TARP_043
  WARNING 02: maximum depth increased for Node JN_MSDP_TARP_048
  WARNING 02: maximum depth increased for Node JN_MSDP_TARP_158
  WARNING 02: maximum depth increased for Node JN_MSDP_TARP_349
  
  *********************************************************
  NOTE: The summary statistics displayed in this report are
  based on results found at every computational time step,  
  not just on results from each reporting time step.
  *********************************************************
  
  ****************
  Analysis Options
  ****************
  Flow Units ............... CFS
  Process Models:
    Rainfall/Runoff ........ YES
    RDII ................... NO
    Snowmelt ............... NO
    Groundwater ............ NO
    Flow Routing ........... YES
    Ponding Allowed ........ NO
    Water Quality .......... NO
  Infiltration Method ...... GREEN_AMPT
  Flow Routing Method ...... DYNWAVE
  Surcharge Method ......... EXTRAN
  Starting Date ............ 01/01/2002 00:00:00
  Ending Date .............. 01/02/2002 06:00:00
  Antecedent Dry Days ...... 5.0
  Report Time Step ......... 00:05:00
  Wet Time Step ............ 00:01:00
  Dry Time Step ............ 01:00:00
  Routing Time Step ........ 1.00 sec
  Variable Time Step ....... YES
  Maximum Trials ........... 8
  Number of Threads ........ 1
  Head Tolerance ........... 0.005000 ft
  
  
  **************************        Volume         Depth
  Runoff Quantity Continuity     acre-feet        inches
  **************************     ---------       -------
  Total Precipitation ......         0.000         0.000
  Evaporation Loss .........         0.000         0.000
  Infiltration Loss ........         0.000         0.000
  Surface Runoff ...........         0.000         0.000
  Final Storage ............         0.000         0.000
  Continuity Error (%) .....         0.000
  
  
  **************************        Volume        Volume
  Flow Routing Continuity        acre-feet      10^6 gal
  **************************     ---------     ---------
  Dry Weather Inflow .......         0.000         0.000
  Wet Weather Inflow .......         0.000         0.000
  Groundwater Inflow .......         0.000         0.000
  RDII Inflow ..............         0.000         0.000
  External Inflow ..........         0.000         0.000
  External Outflow .........         0.000         0.000
  Flooding Loss ............         0.000         0.000
  Evaporation Loss .........         0.000         0.000
  Exfiltration Loss ........         0.000         0.000
  Initial Stored Volume ....         0.004         0.001
  Final Stored Volume ......         0.004         0.001
  Continuity Error (%) .....         0.000
  
  
  ***************************
  Time-Step Critical Elements
  ***************************
  None
  
  
  ********************************
  Highest Flow Instability Indexes
  ********************************
  All links are stable.
  
  
  ***************************
  Subcatchment Runoff Summary
  ***************************
  
  ------------------------------------------------------------------------------------------------------------------------------
                            Total      Total      Total      Total     Imperv       Perv      Total       Total     Peak  Runoff
                           Precip      Runon       Evap      Infil     Runoff     Runoff     Runoff      Runoff   Runoff   Coeff
  Subcatchment                 in         in         in         in         in         in         in    10^6 gal      CFS
  ------------------------------------------------------------------------------------------------------------------------------
  01                         0.00       0.00       0.00       0.00       0.00       0.00       0.00        0.00     0.00   0.000
  02A                        0.00       0.00       0.00       0.00       0.00       0.00       0.00        0.00     0.00   0.000
  02B                        0.00       0.00       0.00       0.00       0.00       0.00       0.00        0.00     0.00   0.000
  03                         0.00       0.00       0.00       0.00       0.00       0.00       0.00        0.00     0.00   0.000
  04                         0.00       0.00       0.00       0.00       0.00       0.00       0.00        0.00     0.00   0.000
  05                         0.00       0.00       0.00       0.00       0.00       0.00       0.00        0.00     0.00   0.000
  06                         0.00       0.00       0.00       0.00       0.00       0.00       0.00        0.00     0.00   0.000
  07                         0.00       0.00       0.00       0.00       0.00       0.00       0.00        0.00     0.00   0.000
  08                         0.00       0.00       0.00       0.00       0.00       0.00       0.00        0.00     0.00   0.000
  09                         0.00       0.00       0.00       0.00       0.00       0.00       0.00        0.00     0.00   0.000
  10                         0.00       0.00       0.00       0.00       0.00       0.00       0.00        0.00     0.00   0.000
  11                         0.00       0.00       0.00       0.00       0.00       0.00       0.00        0.00     0.00   0.000
  12                         0.00       0.00       0.00       0.00       0.00       0.00       0.00        0.00     0.00   0.000
  13                         0.00       0.00       0.00       0.00       0.00       0.00       0.00        0.00     0.00   0.000
  14                         0.00       0.00       0.00       0.00       0.00       0.00       0.00        0.00     0.00   0.000
  15                         0.00       0.00       0.00       0.00       0.00       0.00       0.00        0.00     0.00   0.000
  16                         0.00       0.00       0.00       0.00       0.00       0.00       0.00        0.00     0.00   0.000
  17A                        0.00       0.00       0.00       0.00       0.00       0.00       0.00        0.00     0.00   0.000
  17B                        0.00       0.00       0.00       0.00       0.00       0.00       0.00        0.00     0.00   0.000
  18                         0.00       0.00       0.00       0.00       0.00       0.00       0.00        0.00     0.00   0.000
  19                         0.00       0.00       0.00       0.00       0.00       0.00       0.00        0.00     0.00   0.000
  20                         0.00       0.00       0.00       0.00       0.00       0.00       0.00        0.00     0.00   0.000
  21                         0.00       0.00       0.00       0.00       0.00       0.00       0.00        0.00     0.00   0.000
  22                         0.00       0.00       0.00       0.00       0.00       0.00       0.00        0.00     0.00   0.000
  23                         0.00       0.00       0.00       0.00       0.00       0.00       0.00        0.00     0.00   0.000
  24                         0.00       0.00       0.00       0.00       0.00       0.00       0.00        0.00     0.00   0.000
  25                         0.00       0.00       0.00       0.00       0.00       0.00       0.00        0.00     0.00   0.000
  26                         0.00       0.00       0.00       0.00       0.00       0.00       0.00        0.00     0.00   0.000
  27                         0.00       0.00       0.00       0.00       0.00       0.00       0.00        0.00     0.00   0.000
  28                         0.00       0.00       0.00       0.00       0.00       0.00       0.00        0.00     0.00   0.000
  29                         0.00       0.00       0.00       0.00       0.00       0.00       0.00        0.00     0.00   0.000
  30                         0.00       0.00       0.00       0.00       0.00       0.00       0.00        0.00     0.00   0.000
  31                         0.00       0.00       0.00       0.00       0.00       0.00       0.00        0.00     0.00   0.000
  32                         0.00       0.00       0.00       0.00       0.00       0.00       0.00        0.00     0.00   0.000
  33                         0.00       0.00       0.00       0.00       0.00       0.00       0.00        0.00     0.00   0.000
  34                         0.00       0.00       0.00       0.00       0.00       0.00       0.00        0.00     0.00   0.000
  35                         0.00       0.00       0.00       0.00       0.00       0.00       0.00        0.00     0.00   0.000
  36                         0.00       0.00       0.00       0.00       0.00       0.00       0.00        0.00     0.00   0.000
  37                         0.00       0.00       0.00       0.00       0.00       0.00       0.00        0.00     0.00   0.000
  38                         0.00       0.00       0.00       0.00       0.00       0.00       0.00        0.00     0.00   0.000
  39                         0.00       0.00       0.00       0.00       0.00       0.00       0.00        0.00     0.00   0.000
  40                         0.00       0.00       0.00       0.00       0.00       0.00       0.00        0.00     0.00   0.000
  41                         0.00       0.00       0.00       0.00       0.00       0.00       0.00        0.00     0.00   0.000
  42                         0.00       0.00       0.00       0.00       0.00       0.00       0.00        0.00     0.00   0.000
  43                         0.00       0.00       0.00       0.00       0.00       0.00       0.00        0.00     0.00   0.000
  44                         0.00       0.00       0.00       0.00       0.00       0.00       0.00        0.00     0.00   0.000
  45                         0.00       0.00       0.00       0.00       0.00       0.00       0.00        0.00     0.00   0.000
  46                         0.00       0.00       0.00       0.00       0.00       0.00       0.00        0.00     0.00   0.000
  47                         0.00       0.00       0.00       0.00       0.00       0.00       0.00        0.00     0.00   0.000
  48                         0.00       0.00       0.00       0.00       0.00       0.00       0.00        0.00     0.00   0.000
  49                         0.00       0.00       0.00       0.00       0.00       0.00       0.00        0.00     0.00   0.000
  50                         0.00       0.00       0.00       0.00       0.00       0.00       0.00        0.00     0.00   0.000
  51                         0.00       0.00       0.00       0.00       0.00       0.00       0.00        0.00     0.00   0.000
  52                         0.00       0.00       0.00       0.00       0.00       0.00       0.00        0.00     0.00   0.000
  53                         0.00       0.00       0.00       0.00       0.00       0.00       0.00        0.00     0.00   0.000
  54                         0.00       0.00       0.00       0.00       0.00       0.00       0.00        0.00     0.00   0.000
  55                         0.00       0.00       0.00       0.00       0.00       0.00       0.00        0.00     0.00   0.000
  56                         0.00       0.00       0.00       0.00       0.00       0.00       0.00        0.00     0.00   0.000
  57                         0.00       0.00       0.00       0.00       0.00       0.00       0.00        0.00     0.00   0.000
  58                         0.00       0.00       0.00       0.00       0.00       0.00       0.00        0.00     0.00   0.000
  59                         0.00       0.00       0.00       0.00       0.00       0.00       0.00        0.00     0.00   0.000
  60                         0.00       0.00       0.00       0.00       0.00       0.00       0.00        0.00     0.00   0.000
  61                         0.00       0.00       0.00       0.00       0.00       0.00       0.00        0.00     0.00   0.000
  62                         0.00       0.00       0.00       0.00       0.00       0.00       0.00        0.00     0.00   0.000
  63                         0.00       0.00       0.00       0.00       0.00       0.00       0.00        0.00     0.00   0.000
  64                         0.00       0.00       0.00       0.00       0.00       0.00       0.00        0.00     0.00   0.000
  65                         0.00       0.00       0.00       0.00       0.00       0.00       0.00        0.00     0.00   0.000
  66                         0.00       0.00       0.00       0.00       0.00       0.00       0.00        0.00     0.00   0.000
  68                         0.00       0.00       0.00       0.00       0.00       0.00       0.00        0.00     0.00   0.000
  MS001                      0.00       0.00       0.00       0.00       0.00       0.00       0.00        0.00     0.00   0.000
  MS003                      0.00       0.00       0.00       0.00       0.00       0.00       0.00        0.00     0.00   0.000
  MS005                      0.00       0.00       0.00       0.00       0.00       0.00       0.00        0.00     0.00   0.000
  MS008                      0.00       0.00       0.00       0.00       0.00       0.00       0.00        0.00     0.00   0.000
  MS011                      0.00       0.00       0.00       0.00       0.00       0.00       0.00        0.00     0.00   0.000
  MS012                      0.00       0.00       0.00       0.00       0.00       0.00       0.00        0.00     0.00   0.000
  MS013                      0.00       0.00       0.00       0.00       0.00       0.00       0.00        0.00     0.00   0.000
  MS014                      0.00       0.00       0.00       0.00       0.00       0.00       0.00        0.00     0.00   0.000
  MS015                      0.00       0.00       0.00       0.00       0.00       0.00       0.00        0.00     0.00   0.000
  MS016                      0.00       0.00       0.00       0.00       0.00       0.00       0.00        0.00     0.00   0.000
  MS017                      0.00       0.00       0.00       0.00       0.00       0.00       0.00        0.00     0.00   0.000
  MS018                      0.00       0.00       0.00       0.00       0.00       0.00       0.00        0.00     0.00   0.000
  MS020                      0.00       0.00       0.00       0.00       0.00       0.00       0.00        0.00     0.00   0.000
  MS021                      0.00       0.00       0.00       0.00       0.00       0.00       0.00        0.00     0.00   0.000
  MS024                      0.00       0.00       0.00       0.00       0.00       0.00       0.00        0.00     0.00   0.000
  MS026                      0.00       0.00       0.00       0.00       0.00       0.00       0.00        0.00     0.00   0.000
  MS028                      0.00       0.00       0.00       0.00       0.00       0.00       0.00        0.00     0.00   0.000
  MS029                      0.00       0.00       0.00       0.00       0.00       0.00       0.00        0.00     0.00   0.000
  MS030                      0.00       0.00       0.00       0.00       0.00       0.00       0.00        0.00     0.00   0.000
  MS031                      0.00       0.00       0.00       0.00       0.00       0.00       0.00        0.00     0.00   0.000
  MS032                      0.00       0.00       0.00       0.00       0.00       0.00       0.00        0.00     0.00   0.000
  MS033                      0.00       0.00       0.00       0.00       0.00       0.00       0.00        0.00     0.00   0.000
  MS034                      0.00       0.00       0.00       0.00       0.00       0.00       0.00        0.00     0.00   0.000
  MS035                      0.00       0.00       0.00       0.00       0.00       0.00       0.00        0.00     0.00   0.000
  MS036                      0.00       0.00       0.00       0.00       0.00       0.00       0.00        0.00     0.00   0.000
  MS037                      0.00       0.00       0.00       0.00       0.00       0.00       0.00        0.00     0.00   0.000
  MS038                      0.00       0.00       0.00       0.00       0.00       0.00       0.00        0.00     0.00   0.000
  MS040                      0.00       0.00       0.00       0.00       0.00       0.00       0.00        0.00     0.00   0.000
  MS041                      0.00       0.00       0.00       0.00       0.00       0.00       0.00        0.00     0.00   0.000
  MS042                      0.00       0.00       0.00       0.00       0.00       0.00       0.00        0.00     0.00   0.000
  MS043                      0.00       0.00       0.00       0.00       0.00       0.00       0.00        0.00     0.00   0.000
  MS044                      0.00       0.00       0.00       0.00       0.00       0.00       0.00        0.00     0.00   0.000
  MS045                      0.00       0.00       0.00       0.00       0.00       0.00       0.00        0.00     0.00   0.000
  MS049                      0.00       0.00       0.00       0.00       0.00       0.00       0.00        0.00     0.00   0.000
  MS051                      0.00       0.00       0.00       0.00       0.00       0.00       0.00        0.00     0.00   0.000
  MS054                      0.00       0.00       0.00       0.00       0.00       0.00       0.00        0.00     0.00   0.000
  MS057                      0.00       0.00       0.00       0.00       0.00       0.00       0.00        0.00     0.00   0.000
  MS059                      0.00       0.00       0.00       0.00       0.00       0.00       0.00        0.00     0.00   0.000
  MS060                      0.00       0.00       0.00       0.00       0.00       0.00       0.00        0.00     0.00   0.000
  MS061                      0.00       0.00       0.00       0.00       0.00       0.00       0.00        0.00     0.00   0.000
  MS062                      0.00       0.00       0.00       0.00       0.00       0.00       0.00        0.00     0.00   0.000
  MS069                      0.00       0.00       0.00       0.00       0.00       0.00       0.00        0.00     0.00   0.000
  MS070                      0.00       0.00       0.00       0.00       0.00       0.00       0.00        0.00     0.00   0.000
  MS071                      0.00       0.00       0.00       0.00       0.00       0.00       0.00        0.00     0.00   0.000
  MS072                      0.00       0.00       0.00       0.00       0.00       0.00       0.00        0.00     0.00   0.000
  MS093                      0.00       0.00       0.00       0.00       0.00       0.00       0.00        0.00     0.00   0.000
  MS094                      0.00       0.00       0.00       0.00       0.00       0.00       0.00        0.00     0.00   0.000
  MS095                      0.00       0.00       0.00       0.00       0.00       0.00       0.00        0.00     0.00   0.000
  MS100                      0.00       0.00       0.00       0.00       0.00       0.00       0.00        0.00     0.00   0.000
  MS101                      0.00       0.00       0.00       0.00       0.00       0.00       0.00        0.00     0.00   0.000
  MS103                      0.00       0.00       0.00       0.00       0.00       0.00       0.00        0.00     0.00   0.000
  MS105                      0.00       0.00       0.00       0.00       0.00       0.00       0.00        0.00     0.00   0.000
  MS106                      0.00       0.00       0.00       0.00       0.00       0.00       0.00        0.00     0.00   0.000
  MS111A                     0.00       0.00       0.00       0.00       0.00       0.00       0.00        0.00     0.00   0.000
  MS112                      0.00       0.00       0.00       0.00       0.00       0.00       0.00        0.00     0.00   0.000
  MS113                      0.00       0.00       0.00       0.00       0.00       0.00       0.00        0.00     0.00   0.000
  MS114A                     0.00       0.00       0.00       0.00       0.00       0.00       0.00        0.00     0.00   0.000
  MS115                      0.00       0.00       0.00       0.00       0.00       0.00       0.00        0.00     0.00   0.000
  MS116                      0.00       0.00       0.00       0.00       0.00       0.00       0.00        0.00     0.00   0.000
  MS117                      0.00       0.00       0.00       0.00       0.00       0.00       0.00        0.00     0.00   0.000
  MS118                      0.00       0.00       0.00       0.00       0.00       0.00       0.00        0.00     0.00   0.000
  MS119                      0.00       0.00       0.00       0.00       0.00       0.00       0.00        0.00     0.00   0.000
  MS120                      0.00       0.00       0.00       0.00       0.00       0.00       0.00        0.00     0.00   0.000
  MS121                      0.00       0.00       0.00       0.00       0.00       0.00       0.00        0.00     0.00   0.000
  MS122                      0.00       0.00       0.00       0.00       0.00       0.00       0.00        0.00     0.00   0.000
  MS124                      0.00       0.00       0.00       0.00       0.00       0.00       0.00        0.00     0.00   0.000
  MS127                      0.00       0.00       0.00       0.00       0.00       0.00       0.00        0.00     0.00   0.000
  MS128                      0.00       0.00       0.00       0.00       0.00       0.00       0.00        0.00     0.00   0.000
  MS130                      0.00       0.00       0.00       0.00       0.00       0.00       0.00        0.00     0.00   0.000
  MS131                      0.00       0.00       0.00       0.00       0.00       0.00       0.00        0.00     0.00   0.000
  MS134                      0.00       0.00       0.00       0.00       0.00       0.00       0.00        0.00     0.00   0.000
  MS136                      0.00       0.00       0.00       0.00       0.00       0.00       0.00        0.00     0.00   0.000
  MS137                      0.00       0.00       0.00       0.00       0.00       0.00       0.00        0.00     0.00   0.000
  MS138                      0.00       0.00       0.00       0.00       0.00       0.00       0.00        0.00     0.00   0.000
  MS139                      0.00       0.00       0.00       0.00       0.00       0.00       0.00        0.00     0.00   0.000
  MS141                      0.00       0.00       0.00       0.00       0.00       0.00       0.00        0.00     0.00   0.000
  MS142                      0.00       0.00       0.00       0.00       0.00       0.00       0.00        0.00     0.00   0.000
  MS144                      0.00       0.00       0.00       0.00       0.00       0.00       0.00        0.00     0.00   0.000
  MS144A                     0.00       0.00       0.00       0.00       0.00       0.00       0.00        0.00     0.00   0.000
  MS146                      0.00       0.00       0.00       0.00       0.00       0.00       0.00        0.00     0.00   0.000
  MS149                      0.00       0.00       0.00       0.00       0.00       0.00       0.00        0.00     0.00   0.000
  MS150                      0.00       0.00       0.00       0.00       0.00       0.00       0.00        0.00     0.00   0.000
  MS151                      0.00       0.00       0.00       0.00       0.00       0.00       0.00        0.00     0.00   0.000
  MS152                      0.00       0.00       0.00       0.00       0.00       0.00       0.00        0.00     0.00   0.000
  MS153                      0.00       0.00       0.00       0.00       0.00       0.00       0.00        0.00     0.00   0.000
  MS154                      0.00       0.00       0.00       0.00       0.00       0.00       0.00        0.00     0.00   0.000
  MS157                      0.00       0.00       0.00       0.00       0.00       0.00       0.00        0.00     0.00   0.000
  MS159                      0.00       0.00       0.00       0.00       0.00       0.00       0.00        0.00     0.00   0.000
  MS161                      0.00       0.00       0.00       0.00       0.00       0.00       0.00        0.00     0.00   0.000
  MS162                      0.00       0.00       0.00       0.00       0.00       0.00       0.00        0.00     0.00   0.000
  MS163                      0.00       0.00       0.00       0.00       0.00       0.00       0.00        0.00     0.00   0.000
  MS168                      0.00       0.00       0.00       0.00       0.00       0.00       0.00        0.00     0.00   0.000
  MS172                      0.00       0.00       0.00       0.00       0.00       0.00       0.00        0.00     0.00   0.000
  MS176                      0.00       0.00       0.00       0.00       0.00       0.00       0.00        0.00     0.00   0.000
  MS178                      0.00       0.00       0.00       0.00       0.00       0.00       0.00        0.00     0.00   0.000
  MS182                      0.00       0.00       0.00       0.00       0.00       0.00       0.00        0.00     0.00   0.000
  MS185                      0.00       0.00       0.00       0.00       0.00       0.00       0.00        0.00     0.00   0.000
  MS186                      0.00       0.00       0.00       0.00       0.00       0.00       0.00        0.00     0.00   0.000
  MS187                      0.00       0.00       0.00       0.00       0.00       0.00       0.00        0.00     0.00   0.000
  MS189                      0.00       0.00       0.00       0.00       0.00       0.00       0.00        0.00     0.00   0.000
  MS191                      0.00       0.00       0.00       0.00       0.00       0.00       0.00        0.00     0.00   0.000
  MS193                      0.00       0.00       0.00       0.00       0.00       0.00       0.00        0.00     0.00   0.000
  MS194                      0.00       0.00       0.00       0.00       0.00       0.00       0.00        0.00     0.00   0.000
  MS197                      0.00       0.00       0.00       0.00       0.00       0.00       0.00        0.00     0.00   0.000
  MS199                      0.00       0.00       0.00       0.00       0.00       0.00       0.00        0.00     0.00   0.000
  MS204                      0.00       0.00       0.00       0.00       0.00       0.00       0.00        0.00     0.00   0.000
  MS208                      0.00       0.00       0.00       0.00       0.00       0.00       0.00        0.00     0.00   0.000
  MS209                      0.00       0.00       0.00       0.00       0.00       0.00       0.00        0.00     0.00   0.000
  MS211                      0.00       0.00       0.00       0.00       0.00       0.00       0.00        0.00     0.00   0.000
  MS213                      0.00       0.00       0.00       0.00       0.00       0.00       0.00        0.00     0.00   0.000
  MS218                      0.00       0.00       0.00       0.00       0.00       0.00       0.00        0.00     0.00   0.000
  MS219                      0.00       0.00       0.00       0.00       0.00       0.00       0.00        0.00     0.00   0.000
  MS220                      0.00       0.00       0.00       0.00       0.00       0.00       0.00        0.00     0.00   0.000
  MS222                      0.00       0.00       0.00       0.00       0.00       0.00       0.00        0.00     0.00   0.000
  MS225                      0.00       0.00       0.00       0.00       0.00       0.00       0.00        0.00     0.00   0.000
  MS226                      0.00       0.00       0.00       0.00       0.00       0.00       0.00        0.00     0.00   0.000
  MS228                      0.00       0.00       0.00       0.00       0.00       0.00       0.00        0.00     0.00   0.000
  MS230                      0.00       0.00       0.00       0.00       0.00       0.00       0.00        0.00     0.00   0.000
  MS231                      0.00       0.00       0.00       0.00       0.00       0.00       0.00        0.00     0.00   0.000
  MS232                      0.00       0.00       0.00       0.00       0.00       0.00       0.00        0.00     0.00   0.000
  MS234                      0.00       0.00       0.00       0.00       0.00       0.00       0.00        0.00     0.00   0.000
  MS235                      0.00       0.00       0.00       0.00       0.00       0.00       0.00        0.00     0.00   0.000
  MS236                      0.00       0.00       0.00       0.00       0.00       0.00       0.00        0.00     0.00   0.000
  MS237                      0.00       0.00       0.00       0.00       0.00       0.00       0.00        0.00     0.00   0.000
  MS238                      0.00       0.00       0.00       0.00       0.00       0.00       0.00        0.00     0.00   0.000
  MS239                      0.00       0.00       0.00       0.00       0.00       0.00       0.00        0.00     0.00   0.000
  MS240                      0.00       0.00       0.00       0.00       0.00       0.00       0.00        0.00     0.00   0.000
  MS240-1                    0.00       0.00       0.00       0.00       0.00       0.00       0.00        0.00     0.00   0.000
  MS241                      0.00       0.00       0.00       0.00       0.00       0.00       0.00        0.00     0.00   0.000
  MS242                      0.00       0.00       0.00       0.00       0.00       0.00       0.00        0.00     0.00   0.000
  MS245                      0.00       0.00       0.00       0.00       0.00       0.00       0.00        0.00     0.00   0.000
  MS247                      0.00       0.00       0.00       0.00       0.00       0.00       0.00        0.00     0.00   0.000
  MS249                      0.00       0.00       0.00       0.00       0.00       0.00       0.00        0.00     0.00   0.000
  MS250                      0.00       0.00       0.00       0.00       0.00       0.00       0.00        0.00     0.00   0.000
  MS251                      0.00       0.00       0.00       0.00       0.00       0.00       0.00        0.00     0.00   0.000
  MS254                      0.00       0.00       0.00       0.00       0.00       0.00       0.00        0.00     0.00   0.000
  MS255                      0.00       0.00       0.00       0.00       0.00       0.00       0.00        0.00     0.00   0.000
  MS257                      0.00       0.00       0.00       0.00       0.00       0.00       0.00        0.00     0.00   0.000
  MS258                      0.00       0.00       0.00       0.00       0.00       0.00       0.00        0.00     0.00   0.000
  MS259                      0.00       0.00       0.00       0.00       0.00       0.00       0.00        0.00     0.00   0.000
  MS262                      0.00       0.00       0.00       0.00       0.00       0.00       0.00        0.00     0.00   0.000
  MS263                      0.00       0.00       0.00       0.00       0.00       0.00       0.00        0.00     0.00   0.000
  MS264                      0.00       0.00       0.00       0.00       0.00       0.00       0.00        0.00     0.00   0.000
  MS265                      0.00       0.00       0.00       0.00       0.00       0.00       0.00        0.00     0.00   0.000
  
  
  ******************
  Node Depth Summary
  ******************
  
  ---------------------------------------------------------------------------------
                                 Average  Maximum  Maximum  Time of Max    Reported
                                   Depth    Depth      HGL   Occurrence   Max Depth
  Node                 Type         Feet     Feet     Feet  days hr:min        Feet
  ---------------------------------------------------------------------------------
  JN01                 JUNCTION  -nan(ind)     0.00    43.86     0  00:00        0.00
  JN02A                JUNCTION  -nan(ind)     0.00    46.96     0  00:00        0.00
  JN02B                JUNCTION  -nan(ind)     0.00    38.30     0  00:00        0.00
  JN03                 JUNCTION  -nan(ind)     0.00    56.05     0  00:00        0.00
  JN04                 JUNCTION  -nan(ind)     0.00    55.59     0  00:00        0.00
  JN05                 JUNCTION  -nan(ind)     0.00    50.71     0  00:00        0.00
  JN06                 JUNCTION  -nan(ind)     0.00    39.17     0  00:00        0.00
  JN07                 JUNCTION  -nan(ind)     0.00    49.94     0  00:00        0.00
  JN08                 JUNCTION  -nan(ind)     0.00    30.75     0  00:00        0.00
  JN09                 JUNCTION  -nan(ind)     0.00    46.39     0  00:00        0.00
  JN10                 JUNCTION  -nan(ind)     0.00    37.93     0  00:00        0.00
  JN11                 JUNCTION  -nan(ind)     0.00    27.34     0  00:00        0.00
  JN12                 JUNCTION  -nan(ind)     0.00    43.45     0  00:00        0.00
  JN13                 JUNCTION  -nan(ind)     0.00    38.62     0  00:00        0.00
  JN14                 JUNCTION  -nan(ind)     0.00    30.21     0  00:00        0.00
  JN15                 JUNCTION  -nan(ind)     0.00    25.26     0  00:00        0.00
  JN16                 JUNCTION  -nan(ind)     0.00    37.05     0  00:00        0.00
  JN17A                JUNCTION  -nan(ind)     0.00    28.82     0  00:00        0.00
  JN17B                JUNCTION  -nan(ind)     0.00    31.20     0  00:00        0.00
  JN18                 JUNCTION  -nan(ind)     0.00    28.23     0  00:00        0.00
  JN19                 JUNCTION  -nan(ind)     0.00    26.48     0  00:00        0.00
  JN20                 JUNCTION  -nan(ind)     0.00    43.06     0  00:00        0.00
  JN21                 JUNCTION  -nan(ind)     0.00    33.17     0  00:00        0.00
  JN22                 JUNCTION  -nan(ind)     0.00    43.80     0  00:00        0.00
  JN23                 JUNCTION  -nan(ind)     0.00    26.11     0  00:00        0.00
  JN24                 JUNCTION  -nan(ind)     0.00    43.72     0  00:00        0.00
  JN25                 JUNCTION  -nan(ind)     0.00    41.01     0  00:00        0.00
  JN26                 JUNCTION  -nan(ind)     0.00    31.31     0  00:00        0.00
  JN27                 JUNCTION  -nan(ind)     0.00    31.95     0  00:00        0.00
  JN28                 JUNCTION  -nan(ind)     0.00    48.13     0  00:00        0.00
  JN29                 JUNCTION  -nan(ind)     0.00    67.02     0  00:00        0.00
  JN30                 JUNCTION  -nan(ind)     0.00    27.57     0  00:00        0.00
  JN31                 JUNCTION  -nan(ind)     0.00    32.43     0  00:00        0.00
  JN32                 JUNCTION  -nan(ind)     0.00    49.53     0  00:00        0.00
  JN33                 JUNCTION  -nan(ind)     0.00    45.23     0  00:00        0.00
  JN34                 JUNCTION  -nan(ind)     0.00    50.46     0  00:00        0.00
  JN35                 JUNCTION  -nan(ind)     0.00    30.74     0  00:00        0.00
  JN36                 JUNCTION  -nan(ind)     0.00    27.65     0  00:00        0.00
  JN37                 JUNCTION  -nan(ind)     0.00    33.74     0  00:00        0.00
  JN38                 JUNCTION  -nan(ind)     0.00    32.02     0  00:00        0.00
  JN39                 JUNCTION  -nan(ind)     0.00    27.36     0  00:00        0.00
  JN40                 JUNCTION  -nan(ind)     0.00    36.62     0  00:00        0.00
  JN41                 JUNCTION  -nan(ind)     0.00    19.74     0  00:00        0.00
  JN42                 JUNCTION  -nan(ind)     0.00    28.27     0  00:00        0.00
  JN43                 JUNCTION  -nan(ind)     0.00    21.22     0  00:00        0.00
  JN44                 JUNCTION  -nan(ind)     0.00    13.28     0  00:00        0.00
  JN45                 JUNCTION  -nan(ind)     0.00    15.33     0  00:00        0.00
  JN46                 JUNCTION  -nan(ind)     0.00    25.23     0  00:00        0.00
  JN47                 JUNCTION  -nan(ind)     0.00    34.08     0  00:00        0.00
  JN48                 JUNCTION  -nan(ind)     0.00    21.66     0  00:00        0.00
  JN49                 JUNCTION  -nan(ind)     0.00    31.83     0  00:00        0.00
  JN50                 JUNCTION  -nan(ind)     0.00    31.12     0  00:00        0.00
  JN51                 JUNCTION  -nan(ind)     0.00    24.40     0  00:00        0.00
  JN52                 JUNCTION  -nan(ind)     0.00    37.74     0  00:00        0.00
  JN53                 JUNCTION  -nan(ind)     0.00    50.10     0  00:00        0.00
  JN54                 JUNCTION  -nan(ind)     0.00    57.09     0  00:00        0.00
  JN55                 JUNCTION  -nan(ind)     0.00    74.91     0  00:00        0.00
  JN56                 JUNCTION  -nan(ind)     0.00    76.31     0  00:00        0.00
  JN57                 JUNCTION  -nan(ind)     0.00    45.62     0  00:00        0.00
  JN58                 JUNCTION  -nan(ind)     0.00    54.89     0  00:00        0.00
  JN59                 JUNCTION  -nan(ind)     0.00    43.79     0  00:00        0.00
  JN60                 JUNCTION  -nan(ind)     0.00    42.98     0  00:00        0.00
  JN61                 JUNCTION  -nan(ind)     0.00    42.15     0  00:00        0.00
  JN62                 JUNCTION  -nan(ind)     0.00    31.24     0  00:00        0.00
  JN63                 JUNCTION  -nan(ind)     0.00    30.93     0  00:00        0.00
  JN64                 JUNCTION  -nan(ind)     0.00    59.74     0  00:00        0.00
  JN65                 JUNCTION  -nan(ind)     0.00    87.86     0  00:00        0.00
  JN66                 JUNCTION  -nan(ind)     0.00    39.95     0  00:00        0.00
  JN68                 JUNCTION  -nan(ind)     0.00    66.51     0  00:00        0.00
  JN_MS001             JUNCTION  -nan(ind)     0.00    11.75     0  00:00        0.00
  JN_MS003             JUNCTION  -nan(ind)     0.00    32.28     0  00:00        0.00
  JN_MS005             JUNCTION  -nan(ind)     0.00    22.28     0  00:00        0.00
  JN_MS008             JUNCTION  -nan(ind)     0.00    12.37     0  00:00        0.00
  JN_MS011             JUNCTION  -nan(ind)     0.00    13.64     0  00:00        0.00
  JN_MS012             JUNCTION  -nan(ind)     0.00     8.43     0  00:00        0.00
  JN_MS013             JUNCTION  -nan(ind)     0.00     9.18     0  00:00        0.00
  JN_MS014             JUNCTION  -nan(ind)     0.00    14.35     0  00:00        0.00
  JN_MS015             JUNCTION  -nan(ind)     0.00    10.21     0  00:00        0.00
  JN_MS016             JUNCTION  -nan(ind)     0.00    14.52     0  00:00        0.00
  JN_MS017             JUNCTION  -nan(ind)     0.00     7.13     0  00:00        0.00
  JN_MS018             JUNCTION  -nan(ind)     0.00     6.06     0  00:00        0.00
  JN_MS020             JUNCTION  -nan(ind)     0.00     8.99     0  00:00        0.00
  JN_MS021             JUNCTION  -nan(ind)     0.00    16.04     0  00:00        0.00
  JN_MS024             JUNCTION  -nan(ind)     0.00    18.21     0  00:00        0.00
  JN_MS026             JUNCTION  -nan(ind)     0.00     5.01     0  00:00        0.00
  JN_MS028             JUNCTION  -nan(ind)     0.00    14.14     0  00:00        0.00
  JN_MS029             JUNCTION  -nan(ind)     0.00     4.60     0  00:00        0.00
  JN_MS030             JUNCTION  -nan(ind)     0.00     4.96     0  00:00        0.00
  JN_MS031             JUNCTION  -nan(ind)     0.00     5.06     0  00:00        0.00
  JN_MS032             JUNCTION  -nan(ind)     0.00     7.93     0  00:00        0.00
  JN_MS033             JUNCTION  -nan(ind)     0.00     9.70     0  00:00        0.00
  JN_MS034             JUNCTION  -nan(ind)     0.00     3.48     0  00:00        0.00
  JN_MS035             JUNCTION  -nan(ind)     0.00     4.07     0  00:00        0.00
  JN_MS036             JUNCTION  -nan(ind)     0.00     6.12     0  00:00        0.00
  JN_MS037             JUNCTION  -nan(ind)     0.00     5.00     0  00:00        0.00
  JN_MS038             JUNCTION  -nan(ind)     0.00     7.82     0  00:00        0.00
  JN_MS040             JUNCTION  -nan(ind)     0.00     5.11     0  00:00        0.00
  JN_MS041             JUNCTION  -nan(ind)     0.00     3.53     0  00:00        0.00
  JN_MS042             JUNCTION  -nan(ind)     0.00     4.34     0  00:00        0.00
  JN_MS043             JUNCTION  -nan(ind)     0.00     8.68     0  00:00        0.00
  JN_MS044             JUNCTION  -nan(ind)     0.00     5.11     0  00:00        0.00
  JN_MS045             JUNCTION  -nan(ind)     0.00    15.33     0  00:00        0.00
  JN_MS049             JUNCTION  -nan(ind)     0.00    43.06     0  00:00        0.00
  JN_MS051             JUNCTION  -nan(ind)     0.00    36.61     0  00:00        0.00
  JN_MS054             JUNCTION  -nan(ind)     0.00    42.25     0  00:00        0.00
  JN_MS057             JUNCTION  -nan(ind)     0.00    41.30     0  00:00        0.00
  JN_MS059             JUNCTION  -nan(ind)     0.00    43.12     0  00:00        0.00
  JN_MS060             JUNCTION  -nan(ind)     0.00    44.49     0  00:00        0.00
  JN_MS061             JUNCTION  -nan(ind)     0.00    44.46     0  00:00        0.00
  JN_MS062             JUNCTION  -nan(ind)     0.00    70.02     0  00:00        0.00
  JN_MS069             JUNCTION  -nan(ind)     0.00    41.06     0  00:00        0.00
  JN_MS070             JUNCTION  -nan(ind)     0.00    26.35     0  00:00        0.00
  JN_MS071             JUNCTION  -nan(ind)     0.00    42.28     0  00:00        0.00
  JN_MS072             JUNCTION  -nan(ind)     0.00    27.32     0  00:00        0.00
  JN_MS093             JUNCTION  -nan(ind)     0.00    20.95     0  00:00        0.00
  JN_MS094             JUNCTION  -nan(ind)     0.00    14.80     0  00:00        0.00
  JN_MS095             JUNCTION  -nan(ind)     0.00    16.91     0  00:00        0.00
  JN_MS100             JUNCTION  -nan(ind)     0.00     9.27     0  00:00        0.00
  JN_MS101             JUNCTION  -nan(ind)     0.00     7.27     0  00:00        0.00
  JN_MS103             JUNCTION  -nan(ind)     0.00     0.67     0  00:00        0.00
  JN_MS105             JUNCTION  -nan(ind)     0.00    -1.96     0  00:00        0.00
  JN_MS106             JUNCTION  -nan(ind)     0.00    -0.91     0  00:00        0.00
  JN_MS111A            JUNCTION  -nan(ind)     0.00    -1.37     0  00:00        0.00
  JN_MS112             JUNCTION  -nan(ind)     0.00     0.99     0  00:00        0.00
  JN_MS113             JUNCTION  -nan(ind)     0.00    10.94     0  00:00        0.00
  JN_MS114A            JUNCTION  -nan(ind)     0.00    -0.21     0  00:00        0.00
  JN_MS115             JUNCTION  -nan(ind)     0.00    -3.25     0  00:00        0.00
  JN_MS116             JUNCTION  -nan(ind)     0.00    11.84     0  00:00        0.00
  JN_MS117             JUNCTION  -nan(ind)     0.00     5.87     0  00:00        0.00
  JN_MS118             JUNCTION  -nan(ind)     0.00    15.42     0  00:00        0.00
  JN_MS119             JUNCTION  -nan(ind)     0.00     5.77     0  00:00        0.00
  JN_MS120             JUNCTION  -nan(ind)     0.00     5.25     0  00:00        0.00
  JN_MS121             JUNCTION  -nan(ind)     0.00    -7.36     0  00:00        0.00
  JN_MS122             JUNCTION  -nan(ind)     0.00     9.80     0  00:00        0.00
  JN_MS124             JUNCTION  -nan(ind)     0.00   -10.50     0  00:00        0.00
  JN_MS127             JUNCTION  -nan(ind)     0.00    14.83     0  00:00        0.00
  JN_MS128             JUNCTION  -nan(ind)     0.00    -8.14     0  00:00        0.00
  JN_MS130             JUNCTION  -nan(ind)     0.00     4.94     0  00:00        0.00
  JN_MS131             JUNCTION  -nan(ind)     0.00    -2.53     0  00:00        0.00
  JN_MS134             JUNCTION  -nan(ind)     0.00     2.93     0  00:00        0.00
  JN_MS136             JUNCTION  -nan(ind)     0.00    12.06     0  00:00        0.00
  JN_MS137             JUNCTION  -nan(ind)     0.00    -2.88     0  00:00        0.00
  JN_MS138             JUNCTION  -nan(ind)     0.00   -16.42     0  00:00        0.00
  JN_MS139             JUNCTION  -nan(ind)     0.00    19.57     0  00:00        0.00
  JN_MS141             JUNCTION  -nan(ind)     0.00     1.75     0  00:00        0.00
  JN_MS142             JUNCTION  -nan(ind)     0.00     2.65     0  00:00        0.00
  JN_MS144             JUNCTION  -nan(ind)     0.00     0.78     0  00:00        0.00
  JN_MS144A            JUNCTION  -nan(ind)     0.00    -1.14     0  00:00        0.00
  JN_MS146             JUNCTION  -nan(ind)     0.00   -12.21     0  00:00        0.00
  JN_MS149             JUNCTION  -nan(ind)     0.00    10.86     0  00:00        0.00
  JN_MS150             JUNCTION  -nan(ind)     0.00    21.43     0  00:00        0.00
  JN_MS151             JUNCTION  -nan(ind)     0.00    -3.42     0  00:00        0.00
  JN_MS152             JUNCTION  -nan(ind)     0.00    22.97     0  00:00        0.00
  JN_MS153             JUNCTION  -nan(ind)     0.00    -4.95     0  00:00        0.00
  JN_MS154             JUNCTION  -nan(ind)     0.00    20.52     0  00:00        0.00
  JN_MS157             JUNCTION  -nan(ind)     0.00     1.71     0  00:00        0.00
  JN_MS159             JUNCTION  -nan(ind)     0.00    11.88     0  00:00        0.00
  JN_MS161             JUNCTION  -nan(ind)     0.00    -0.97     0  00:00        0.00
  JN_MS162             JUNCTION  -nan(ind)     0.00    15.12     0  00:00        0.00
  JN_MS163             JUNCTION  -nan(ind)     0.00    -7.68     0  00:00        0.00
  JN_MS168             JUNCTION  -nan(ind)     0.00    -7.17     0  00:00        0.00
  JN_MS172             JUNCTION  -nan(ind)     0.00    -4.95     0  00:00        0.00
  JN_MS176             JUNCTION  -nan(ind)     0.00     8.75     0  00:00        0.00
  JN_MS178             JUNCTION  -nan(ind)     0.00    -9.55     0  00:00        0.00
  JN_MS182             JUNCTION  -nan(ind)     0.00     3.97     0  00:00        0.00
  JN_MS185             JUNCTION  -nan(ind)     0.00    11.32     0  00:00        0.00
  JN_MS186             JUNCTION  -nan(ind)     0.00     7.20     0  00:00        0.00
  JN_MS187             JUNCTION  -nan(ind)     0.00     2.10     0  00:00        0.00
  JN_MS189             JUNCTION  -nan(ind)     0.00     6.25     0  00:00        0.00
  JN_MS191             JUNCTION  -nan(ind)     0.00     9.75     0  00:00        0.00
  JN_MS193             JUNCTION  -nan(ind)     0.00     2.70     0  00:00        0.00
  JN_MS194             JUNCTION  -nan(ind)     0.00     1.66     0  00:00        0.00
  JN_MS197             JUNCTION  -nan(ind)     0.00     5.99     0  00:00        0.00
  JN_MS199             JUNCTION  -nan(ind)     0.00     1.70     0  00:00        0.00
  JN_MS204             JUNCTION  -nan(ind)     0.00     2.86     0  00:00        0.00
  JN_MS208             JUNCTION  -nan(ind)     0.00    -6.32     0  00:00        0.00
  JN_MS209             JUNCTION  -nan(ind)     0.00    -3.86     0  00:00        0.00
  JN_MS211             JUNCTION  -nan(ind)     0.00     1.62     0  00:00        0.00
  JN_MS213             JUNCTION  -nan(ind)     0.00     3.50     0  00:00        0.00
  JN_MS218             JUNCTION  -nan(ind)     0.00   -11.69     0  00:00        0.00
  JN_MS219             JUNCTION  -nan(ind)     0.00    -2.56     0  00:00        0.00
  JN_MS220             JUNCTION  -nan(ind)     0.00    -6.77     0  00:00        0.00
  JN_MS222             JUNCTION  -nan(ind)     0.00     4.76     0  00:00        0.00
  JN_MS225             JUNCTION  -nan(ind)     0.00   -10.21     0  00:00        0.00
  JN_MS226             JUNCTION  -nan(ind)     0.00    -7.13     0  00:00        0.00
  JN_MS228             JUNCTION  -nan(ind)     0.00   -13.41     0  00:00        0.00
  JN_MS230             JUNCTION  -nan(ind)     0.00    -7.08     0  00:00        0.00
  JN_MS231             JUNCTION  -nan(ind)     0.00    18.22     0  00:00        0.00
  JN_MS232             JUNCTION  -nan(ind)     0.00    -2.93     0  00:00        0.00
  JN_MS234             JUNCTION  -nan(ind)     0.00     5.58     0  00:00        0.00
  JN_MS235             JUNCTION  -nan(ind)     0.00    -6.69     0  00:00        0.00
  JN_MS236             JUNCTION  -nan(ind)     0.00    -8.97     0  00:00        0.00
  JN_MS237             JUNCTION  -nan(ind)     0.00   -16.05     0  00:00        0.00
  JN_MS238             JUNCTION  -nan(ind)     0.00     4.64     0  00:00        0.00
  JN_MS239             JUNCTION  -nan(ind)     0.00   -22.44     0  00:00        0.00
  JN_MS240             JUNCTION  -nan(ind)     0.00     2.24     0  00:00        0.00
  JN_MS240-1           JUNCTION  -nan(ind)     0.00   -17.14     0  00:00        0.00
  JN_MS241             JUNCTION  -nan(ind)     0.00     9.21     0  00:00        0.00
  JN_MS242             JUNCTION  -nan(ind)     0.00     3.26     0  00:00        0.00
  JN_MS245             JUNCTION  -nan(ind)     0.00    -0.38     0  00:00        0.00
  JN_MS247             JUNCTION  -nan(ind)     0.00     1.95     0  00:00        0.00
  JN_MS249             JUNCTION  -nan(ind)     0.00    -3.02     0  00:00        0.00
  JN_MS250             JUNCTION  -nan(ind)     0.00     2.07     0  00:00        0.00
  JN_MS251             JUNCTION  -nan(ind)     0.00   -15.51     0  00:00        0.00
  JN_MS254             JUNCTION  -nan(ind)     0.00    -4.07     0  00:00        0.00
  JN_MS255             JUNCTION  -nan(ind)     0.00   -12.18     0  00:00        0.00
  JN_MS257             JUNCTION  -nan(ind)     0.00    55.43     0  00:00        0.00
  JN_MS258             JUNCTION  -nan(ind)     0.00    16.87     0  00:00        0.00
  JN_MS259             JUNCTION  -nan(ind)     0.00    47.76     0  00:00        0.00
  JN_MS262             JUNCTION  -nan(ind)     0.00    16.34     0  00:00        0.00
  JN_MS263             JUNCTION  -nan(ind)     0.00     9.08     0  00:00        0.00
  JN_MS264             JUNCTION  -nan(ind)     0.00     8.89     0  00:00        0.00
  JN_MS265             JUNCTION  -nan(ind)     0.00    31.08     0  00:00        0.00
  JN_MSDP_TARP_001     JUNCTION  -nan(ind)     0.00  -128.43     0  00:00        0.00
  JN_MSDP_TARP_002     JUNCTION  -nan(ind)     0.00  -121.94     0  00:00        0.00
  JN_MSDP_TARP_003     JUNCTION  -nan(ind)     0.00  -140.96     0  00:00        0.00
  JN_MSDP_TARP_004     JUNCTION  -nan(ind)     0.00  -265.54     0  00:00        0.00
  JN_MSDP_TARP_005     JUNCTION  -nan(ind)     0.00  -263.68     0  00:00        0.00
  JN_MSDP_TARP_006     JUNCTION  -nan(ind)     0.00  -263.26     0  00:00        0.00
  JN_MSDP_TARP_007     JUNCTION  -nan(ind)     0.00  -263.25     0  00:00        0.00
  JN_MSDP_TARP_008     JUNCTION  -nan(ind)     0.00  -263.05     0  00:00        0.00
  JN_MSDP_TARP_009     JUNCTION  -nan(ind)     0.00  -262.57     0  00:00        0.00
  JN_MSDP_TARP_010     JUNCTION  -nan(ind)     0.00  -261.82     0  00:00        0.00
  JN_MSDP_TARP_011     JUNCTION  -nan(ind)     0.00  -261.43     0  00:00        0.00
  JN_MSDP_TARP_012     JUNCTION  -nan(ind)     0.00  -261.36     0  00:00        0.00
  JN_MSDP_TARP_013     JUNCTION  -nan(ind)     0.00  -260.73     0  00:00        0.00
  JN_MSDP_TARP_015     JUNCTION  -nan(ind)     0.00  -260.24     0  00:00        0.00
  JN_MSDP_TARP_016     JUNCTION  -nan(ind)     0.00  -259.71     0  00:00        0.00
  JN_MSDP_TARP_017     JUNCTION  -nan(ind)     0.00  -259.66     0  00:00        0.00
  JN_MSDP_TARP_018     JUNCTION  -nan(ind)     0.00  -259.63     0  00:00        0.00
  JN_MSDP_TARP_019     JUNCTION  -nan(ind)     0.00  -258.84     0  00:00        0.00
  JN_MSDP_TARP_020     JUNCTION  -nan(ind)     0.00  -258.45     0  00:00        0.00
  JN_MSDP_TARP_021     JUNCTION  -nan(ind)     0.00  -257.71     0  00:00        0.00
  JN_MSDP_TARP_022     JUNCTION  -nan(ind)     0.00  -256.28     0  00:00        0.00
  JN_MSDP_TARP_023     JUNCTION  -nan(ind)     0.00  -256.80     0  00:00        0.00
  JN_MSDP_TARP_024     JUNCTION  -nan(ind)     0.00  -256.72     0  00:00        0.00
  JN_MSDP_TARP_025     JUNCTION  -nan(ind)     0.00  -257.35     0  00:00        0.00
  JN_MSDP_TARP_026     JUNCTION  -nan(ind)     0.00  -255.67     0  00:00        0.00
  JN_MSDP_TARP_027     JUNCTION  -nan(ind)     0.00  -255.38     0  00:00        0.00
  JN_MSDP_TARP_028     JUNCTION  -nan(ind)     0.00  -255.18     0  00:00        0.00
  JN_MSDP_TARP_029     JUNCTION  -nan(ind)     0.00  -254.73     0  00:00        0.00
  JN_MSDP_TARP_030     JUNCTION  -nan(ind)     0.00  -254.47     0  00:00        0.00
  JN_MSDP_TARP_031     JUNCTION  -nan(ind)     0.00  -254.32     0  00:00        0.00
  JN_MSDP_TARP_032     JUNCTION  -nan(ind)     0.00  -253.91     0  00:00        0.00
  JN_MSDP_TARP_033     JUNCTION  -nan(ind)     0.00  -253.70     0  00:00        0.00
  JN_MSDP_TARP_034     JUNCTION  -nan(ind)     0.00  -253.63     0  00:00        0.00
  JN_MSDP_TARP_035     JUNCTION  -nan(ind)     0.00  -252.95     0  00:00        0.00
  JN_MSDP_TARP_036     JUNCTION  -nan(ind)     0.00  -252.55     0  00:00        0.00
  JN_MSDP_TARP_037     JUNCTION  -nan(ind)     0.00  -252.44     0  00:00        0.00
  JN_MSDP_TARP_038     JUNCTION  -nan(ind)     0.00  -252.43     0  00:00        0.00
  JN_MSDP_TARP_039     JUNCTION  -nan(ind)     0.00  -252.53     0  00:00        0.00
  JN_MSDP_TARP_040     JUNCTION  -nan(ind)     0.00  -254.18     0  00:00        0.00
  JN_MSDP_TARP_041     JUNCTION  -nan(ind)     0.00  -254.12     0  00:00        0.00
  JN_MSDP_TARP_042     JUNCTION  -nan(ind)     0.00  -254.04     0  00:00        0.00
  JN_MSDP_TARP_043     JUNCTION  -nan(ind)     0.00  -253.51     0  00:00        0.00
  JN_MSDP_TARP_044     JUNCTION  -nan(ind)     0.00  -253.19     0  00:00        0.00
  JN_MSDP_TARP_045     JUNCTION  -nan(ind)     0.00  -253.10     0  00:00        0.00
  JN_MSDP_TARP_046     JUNCTION  -nan(ind)     0.00  -253.03     0  00:00        0.00
  JN_MSDP_TARP_047     JUNCTION  -nan(ind)     0.00  -252.89     0  00:00        0.00
  JN_MSDP_TARP_048     JUNCTION  -nan(ind)     0.00  -252.47     0  00:00        0.00
  JN_MSDP_TARP_049     JUNCTION  -nan(ind)     0.00  -252.10     0  00:00        0.00
  JN_MSDP_TARP_050     JUNCTION  -nan(ind)     0.00  -251.89     0  00:00        0.00
  JN_MSDP_TARP_051     JUNCTION  -nan(ind)     0.00  -251.79     0  00:00        0.00
  JN_MSDP_TARP_052     JUNCTION  -nan(ind)     0.00  -251.72     0  00:00        0.00
  JN_MSDP_TARP_054     JUNCTION  -nan(ind)     0.00  -251.68     0  00:00        0.00
  JN_MSDP_TARP_055     JUNCTION  -nan(ind)     0.00  -251.46     0  00:00        0.00
  JN_MSDP_TARP_056     JUNCTION  -nan(ind)     0.00  -251.35     0  00:00        0.00
  JN_MSDP_TARP_057     JUNCTION  -nan(ind)     0.00  -251.16     0  00:00        0.00
  JN_MSDP_TARP_058     JUNCTION  -nan(ind)     0.00  -250.78     0  00:00        0.00
  JN_MSDP_TARP_059     JUNCTION  -nan(ind)     0.00  -250.45     0  00:00        0.00
  JN_MSDP_TARP_060     JUNCTION  -nan(ind)     0.00  -250.33     0  00:00        0.00
  JN_MSDP_TARP_061     JUNCTION  -nan(ind)     0.00  -249.99     0  00:00        0.00
  JN_MSDP_TARP_062     JUNCTION  -nan(ind)     0.00  -249.86     0  00:00        0.00
  JN_MSDP_TARP_063     JUNCTION  -nan(ind)     0.00  -249.67     0  00:00        0.00
  JN_MSDP_TARP_064     JUNCTION  -nan(ind)     0.00  -249.22     0  00:00        0.00
  JN_MSDP_TARP_065     JUNCTION  -nan(ind)     0.00  -249.23     0  00:00        0.00
  JN_MSDP_TARP_066     JUNCTION  -nan(ind)     0.00  -249.23     0  00:00        0.00
  JN_MSDP_TARP_067     JUNCTION  -nan(ind)     0.00  -249.20     0  00:00        0.00
  JN_MSDP_TARP_068     JUNCTION  -nan(ind)     0.00  -248.80     0  00:00        0.00
  JN_MSDP_TARP_069     JUNCTION  -nan(ind)     0.00  -248.83     0  00:00        0.00
  JN_MSDP_TARP_070     JUNCTION  -nan(ind)     0.00  -248.98     0  00:00        0.00
  JN_MSDP_TARP_071     JUNCTION  -nan(ind)     0.00  -248.39     0  00:00        0.00
  JN_MSDP_TARP_072     JUNCTION  -nan(ind)     0.00  -248.30     0  00:00        0.00
  JN_MSDP_TARP_073     JUNCTION  -nan(ind)     0.00  -247.90     0  00:00        0.00
  JN_MSDP_TARP_075     JUNCTION  -nan(ind)     0.00  -247.54     0  00:00        0.00
  JN_MSDP_TARP_076     JUNCTION  -nan(ind)     0.00  -247.50     0  00:00        0.00
  JN_MSDP_TARP_077     JUNCTION  -nan(ind)     0.00  -246.99     0  00:00        0.00
  JN_MSDP_TARP_078     JUNCTION  -nan(ind)     0.00  -246.21     0  00:00        0.00
  JN_MSDP_TARP_079     JUNCTION  -nan(ind)     0.00  -244.83     0  00:00        0.00
  JN_MSDP_TARP_080     JUNCTION  -nan(ind)     0.00  -244.82     0  00:00        0.00
  JN_MSDP_TARP_081     JUNCTION  -nan(ind)     0.00  -244.07     0  00:00        0.00
  JN_MSDP_TARP_082     JUNCTION  -nan(ind)     0.00  -243.37     0  00:00        0.00
  JN_MSDP_TARP_083     JUNCTION  -nan(ind)     0.00  -243.25     0  00:00        0.00
  JN_MSDP_TARP_084     JUNCTION  -nan(ind)     0.00  -243.04     0  00:00        0.00
  JN_MSDP_TARP_085     JUNCTION  -nan(ind)     0.00  -242.52     0  00:00        0.00
  JN_MSDP_TARP_086     JUNCTION  -nan(ind)     0.00  -241.85     0  00:00        0.00
  JN_MSDP_TARP_087     JUNCTION  -nan(ind)     0.00  -241.59     0  00:00        0.00
  JN_MSDP_TARP_088     JUNCTION  -nan(ind)     0.00  -241.22     0  00:00        0.00
  JN_MSDP_TARP_089     JUNCTION  -nan(ind)     0.00  -240.85     0  00:00        0.00
  JN_MSDP_TARP_090     JUNCTION  -nan(ind)     0.00  -240.37     0  00:00        0.00
  JN_MSDP_TARP_091     JUNCTION  -nan(ind)     0.00  -239.82     0  00:00        0.00
  JN_MSDP_TARP_092     JUNCTION  -nan(ind)     0.00  -239.38     0  00:00        0.00
  JN_MSDP_TARP_093     JUNCTION  -nan(ind)     0.00  -238.89     0  00:00        0.00
  JN_MSDP_TARP_094     JUNCTION  -nan(ind)     0.00  -237.80     0  00:00        0.00
  JN_MSDP_TARP_095     JUNCTION  -nan(ind)     0.00  -237.51     0  00:00        0.00
  JN_MSDP_TARP_096     JUNCTION  -nan(ind)     0.00  -233.60     0  00:00        0.00
  JN_MSDP_TARP_097     JUNCTION  -nan(ind)     0.00  -231.17     0  00:00        0.00
  JN_MSDP_TARP_098     JUNCTION  -nan(ind)     0.00  -229.47     0  00:00        0.00
  JN_MSDP_TARP_099     JUNCTION  -nan(ind)     0.00  -227.90     0  00:00        0.00
  JN_MSDP_TARP_100     JUNCTION  -nan(ind)     0.00  -224.60     0  00:00        0.00
  JN_MSDP_TARP_101     JUNCTION  -nan(ind)     0.00  -221.80     0  00:00        0.00
  JN_MSDP_TARP_102     JUNCTION  -nan(ind)     0.00  -218.44     0  00:00        0.00
  JN_MSDP_TARP_103     JUNCTION  -nan(ind)     0.00  -215.76     0  00:00        0.00
  JN_MSDP_TARP_104     JUNCTION  -nan(ind)     0.00  -214.71     0  00:00        0.00
  JN_MSDP_TARP_105     JUNCTION  -nan(ind)     0.00  -213.10     0  00:00        0.00
  JN_MSDP_TARP_106     JUNCTION  -nan(ind)     0.00  -210.86     0  00:00        0.00
  JN_MSDP_TARP_107     JUNCTION  -nan(ind)     0.00  -208.73     0  00:00        0.00
  JN_MSDP_TARP_108     JUNCTION  -nan(ind)     0.00  -206.78     0  00:00        0.00
  JN_MSDP_TARP_109     JUNCTION  -nan(ind)     0.00  -204.46     0  00:00        0.00
  JN_MSDP_TARP_110     JUNCTION  -nan(ind)     0.00  -202.71     0  00:00        0.00
  JN_MSDP_TARP_111     JUNCTION  -nan(ind)     0.00  -202.45     0  00:00        0.00
  JN_MSDP_TARP_112     JUNCTION  -nan(ind)     0.00  -200.93     0  00:00        0.00
  JN_MSDP_TARP_113     JUNCTION  -nan(ind)     0.00  -200.74     0  00:00        0.00
  JN_MSDP_TARP_114     JUNCTION  -nan(ind)     0.00  -199.49     0  00:00        0.00
  JN_MSDP_TARP_115     JUNCTION  -nan(ind)     0.00  -198.33     0  00:00        0.00
  JN_MSDP_TARP_116     JUNCTION  -nan(ind)     0.00  -197.39     0  00:00        0.00
  JN_MSDP_TARP_117     JUNCTION  -nan(ind)     0.00  -196.70     0  00:00        0.00
  JN_MSDP_TARP_118     JUNCTION  -nan(ind)     0.00  -195.81     0  00:00        0.00
  JN_MSDP_TARP_119     JUNCTION  -nan(ind)     0.00  -195.00     0  00:00        0.00
  JN_MSDP_TARP_120     JUNCTION  -nan(ind)     0.00  -194.45     0  00:00        0.00
  JN_MSDP_TARP_121     JUNCTION  -nan(ind)     0.00  -229.46     0  00:00        0.00
  JN_MSDP_TARP_122     JUNCTION  -nan(ind)     0.00  -222.68     0  00:00        0.00
  JN_MSDP_TARP_123     JUNCTION  -nan(ind)     0.00  -218.82     0  00:00        0.00
  JN_MSDP_TARP_124     JUNCTION  -nan(ind)     0.00  -214.89     0  00:00        0.00
  JN_MSDP_TARP_125     JUNCTION  -nan(ind)     0.00  -213.77     0  00:00        0.00
  JN_MSDP_TARP_126     JUNCTION  -nan(ind)     0.00  -209.19     0  00:00        0.00
  JN_MSDP_TARP_127     JUNCTION  -nan(ind)     0.00  -206.54     0  00:00        0.00
  JN_MSDP_TARP_128     JUNCTION  -nan(ind)     0.00  -203.88     0  00:00        0.00
  JN_MSDP_TARP_129     JUNCTION  -nan(ind)     0.00  -201.95     0  00:00        0.00
  JN_MSDP_TARP_130     JUNCTION  -nan(ind)     0.00  -197.35     0  00:00        0.00
  JN_MSDP_TARP_131     JUNCTION  -nan(ind)     0.00  -194.59     0  00:00        0.00
  JN_MSDP_TARP_132     JUNCTION  -nan(ind)     0.00  -189.43     0  00:00        0.00
  JN_MSDP_TARP_133     JUNCTION  -nan(ind)     0.00  -188.14     0  00:00        0.00
  JN_MSDP_TARP_134     JUNCTION  -nan(ind)     0.00  -184.73     0  00:00        0.00
  JN_MSDP_TARP_135     JUNCTION  -nan(ind)     0.00  -180.79     0  00:00        0.00
  JN_MSDP_TARP_136     JUNCTION  -nan(ind)     0.00  -179.00     0  00:00        0.00
  JN_MSDP_TARP_137     JUNCTION  -nan(ind)     0.00  -171.45     0  00:00        0.00
  JN_MSDP_TARP_138     JUNCTION  -nan(ind)     0.00  -168.33     0  00:00        0.00
  JN_MSDP_TARP_139     JUNCTION  -nan(ind)     0.00  -161.24     0  00:00        0.00
  JN_MSDP_TARP_140     JUNCTION  -nan(ind)     0.00  -252.76     0  00:00        0.00
  JN_MSDP_TARP_141     JUNCTION  -nan(ind)     0.00  -249.37     0  00:00        0.00
  JN_MSDP_TARP_142     JUNCTION  -nan(ind)     0.00  -244.96     0  00:00        0.00
  JN_MSDP_TARP_143     JUNCTION  -nan(ind)     0.00  -239.88     0  00:00        0.00
  JN_MSDP_TARP_144     JUNCTION  -nan(ind)     0.00  -237.39     0  00:00        0.00
  JN_MSDP_TARP_145     JUNCTION  -nan(ind)     0.00  -238.25     0  00:00        0.00
  JN_MSDP_TARP_146     JUNCTION  -nan(ind)     0.00  -237.05     0  00:00        0.00
  JN_MSDP_TARP_147     JUNCTION  -nan(ind)     0.00  -235.71     0  00:00        0.00
  JN_MSDP_TARP_148     JUNCTION  -nan(ind)     0.00  -241.15     0  00:00        0.00
  JN_MSDP_TARP_149     JUNCTION  -nan(ind)     0.00  -237.57     0  00:00        0.00
  JN_MSDP_TARP_150     JUNCTION  -nan(ind)     0.00  -234.24     0  00:00        0.00
  JN_MSDP_TARP_151     JUNCTION  -nan(ind)     0.00  -234.44     0  00:00        0.00
  JN_MSDP_TARP_152     JUNCTION  -nan(ind)     0.00  -220.19     0  00:00        0.00
  JN_MSDP_TARP_153     JUNCTION  -nan(ind)     0.00  -213.92     0  00:00        0.00
  JN_MSDP_TARP_154     JUNCTION  -nan(ind)     0.00  -213.33     0  00:00        0.00
  JN_MSDP_TARP_155     JUNCTION  -nan(ind)     0.00  -211.07     0  00:00        0.00
  JN_MSDP_TARP_156     JUNCTION  -nan(ind)     0.00  -208.24     0  00:00        0.00
  JN_MSDP_TARP_157     JUNCTION  -nan(ind)     0.00  -206.13     0  00:00        0.00
  JN_MSDP_TARP_158     JUNCTION  -nan(ind)     0.00  -205.97     0  00:00        0.00
  JN_MSDP_TARP_159     JUNCTION  -nan(ind)     0.00  -203.92     0  00:00        0.00
  JN_MSDP_TARP_160     JUNCTION  -nan(ind)     0.00  -202.25     0  00:00        0.00
  JN_MSDP_TARP_161     JUNCTION  -nan(ind)     0.00  -200.71     0  00:00        0.00
  JN_MSDP_TARP_162     JUNCTION  -nan(ind)     0.00  -196.49     0  00:00        0.00
  JN_MSDP_TARP_163     JUNCTION  -nan(ind)     0.00  -193.51     0  00:00        0.00
  JN_MSDP_TARP_164     JUNCTION  -nan(ind)     0.00  -190.80     0  00:00        0.00
  JN_MSDP_TARP_165     JUNCTION  -nan(ind)     0.00  -183.57     0  00:00        0.00
  JN_MSDP_TARP_166     JUNCTION  -nan(ind)     0.00  -182.01     0  00:00        0.00
  JN_MSDP_TARP_167     JUNCTION  -nan(ind)     0.00  -180.94     0  00:00        0.00
  JN_MSDP_TARP_168     JUNCTION  -nan(ind)     0.00  -179.15     0  00:00        0.00
  JN_MSDP_TARP_169     JUNCTION  -nan(ind)     0.00  -177.52     0  00:00        0.00
  JN_MSDP_TARP_170     JUNCTION  -nan(ind)     0.00  -175.66     0  00:00        0.00
  JN_MSDP_TARP_171     JUNCTION  -nan(ind)     0.00  -175.83     0  00:00        0.00
  JN_MSDP_TARP_172     JUNCTION  -nan(ind)     0.00  -172.86     0  00:00        0.00
  JN_MSDP_TARP_173     JUNCTION  -nan(ind)     0.00  -169.39     0  00:00        0.00
  JN_MSDP_TARP_174     JUNCTION  -nan(ind)     0.00  -165.32     0  00:00        0.00
  JN_MSDP_TARP_175     JUNCTION  -nan(ind)     0.00  -161.29     0  00:00        0.00
  JN_MSDP_TARP_176     JUNCTION  -nan(ind)     0.00  -156.40     0  00:00        0.00
  JN_MSDP_TARP_177     JUNCTION  -nan(ind)     0.00  -152.40     0  00:00        0.00
  JN_MSDP_TARP_178     JUNCTION  -nan(ind)     0.00  -149.78     0  00:00        0.00
  JN_MSDP_TARP_179     JUNCTION  -nan(ind)     0.00  -146.73     0  00:00        0.00
  JN_MSDP_TARP_180     JUNCTION  -nan(ind)     0.00   -22.32     0  00:00        0.00
  JN_MSDP_TARP_181     JUNCTION  -nan(ind)     0.00   -17.55     0  00:00        0.00
  JN_MSDP_TARP_182     JUNCTION  -nan(ind)     0.00    -9.63     0  00:00        0.00
  JN_MSDP_TARP_183     JUNCTION  -nan(ind)     0.00    -5.72     0  00:00        0.00
  JN_MSDP_TARP_184     JUNCTION  -nan(ind)     0.00  -211.84     0  00:00        0.00
  JN_MSDP_TARP_185     JUNCTION  -nan(ind)     0.00  -198.89     0  00:00        0.00
  JN_MSDP_TARP_186     JUNCTION  -nan(ind)     0.00  -197.22     0  00:00        0.00
  JN_MSDP_TARP_187     JUNCTION  -nan(ind)     0.00  -195.22     0  00:00        0.00
  JN_MSDP_TARP_188     JUNCTION  -nan(ind)     0.00  -190.72     0  00:00        0.00
  JN_MSDP_TARP_189     JUNCTION  -nan(ind)     0.00  -243.85     0  00:00        0.00
  JN_MSDP_TARP_190     JUNCTION  -nan(ind)     0.00  -243.04     0  00:00        0.00
  JN_MSDP_TARP_191     JUNCTION  -nan(ind)     0.00  -240.72     0  00:00        0.00
  JN_MSDP_TARP_192     JUNCTION  -nan(ind)     0.00  -240.02     0  00:00        0.00
  JN_MSDP_TARP_193     JUNCTION  -nan(ind)     0.00  -238.63     0  00:00        0.00
  JN_MSDP_TARP_194     JUNCTION  -nan(ind)     0.00  -144.54     0  00:00        0.00
  JN_MSDP_TARP_195     JUNCTION  -nan(ind)     0.00  -142.55     0  00:00        0.00
  JN_MSDP_TARP_196     JUNCTION  -nan(ind)     0.00  -140.57     0  00:00        0.00
  JN_MSDP_TARP_197     JUNCTION  -nan(ind)     0.00  -138.83     0  00:00        0.00
  JN_MSDP_TARP_198     JUNCTION  -nan(ind)     0.00  -139.77     0  00:00        0.00
  JN_MSDP_TARP_199     JUNCTION  -nan(ind)     0.00  -136.64     0  00:00        0.00
  JN_MSDP_TARP_200     JUNCTION  -nan(ind)     0.00  -245.25     0  00:00        0.00
  JN_MSDP_TARP_201     JUNCTION  -nan(ind)     0.00  -261.59     0  00:00        0.00
  JN_MSDP_TARP_211     JUNCTION  -nan(ind)     0.00  -121.83     0  00:00        0.00
  JN_MSDP_TARP_212     JUNCTION  -nan(ind)     0.00  -130.35     0  00:00        0.00
  JN_MSDP_TARP_213     JUNCTION  -nan(ind)     0.00  -130.84     0  00:00        0.00
  JN_MSDP_TARP_214     JUNCTION  -nan(ind)     0.00  -131.06     0  00:00        0.00
  JN_MSDP_TARP_215     JUNCTION  -nan(ind)     0.00  -131.71     0  00:00        0.00
  JN_MSDP_TARP_216     JUNCTION  -nan(ind)     0.00  -141.53     0  00:00        0.00
  JN_MSDP_TARP_223     JUNCTION  -nan(ind)     0.00  -311.93     0  00:00        0.00
  JN_MSDP_TARP_224     JUNCTION  -nan(ind)     0.00  -309.89     0  00:00        0.00
  JN_MSDP_TARP_225     JUNCTION  -nan(ind)     0.00  -307.85     0  00:00        0.00
  JN_MSDP_TARP_226     JUNCTION  -nan(ind)     0.00  -306.23     0  00:00        0.00
  JN_MSDP_TARP_227     JUNCTION  -nan(ind)     0.00  -304.46     0  00:00        0.00
  JN_MSDP_TARP_228     JUNCTION  -nan(ind)     0.00  -303.45     0  00:00        0.00
  JN_MSDP_TARP_229     JUNCTION  -nan(ind)     0.00  -302.96     0  00:00        0.00
  JN_MSDP_TARP_230     JUNCTION  -nan(ind)     0.00  -301.79     0  00:00        0.00
  JN_MSDP_TARP_231     JUNCTION  -nan(ind)     0.00  -300.93     0  00:00        0.00
  JN_MSDP_TARP_232     JUNCTION  -nan(ind)     0.00  -264.00     0  00:00        0.00
  JN_MSDP_TARP_233     JUNCTION  -nan(ind)     0.00  -299.00     0  00:00        0.00
  JN_MSDP_TARP_234     JUNCTION  -nan(ind)     0.00  -298.90     0  00:00        0.00
  JN_MSDP_TARP_235     JUNCTION  -nan(ind)     0.00  -296.64     0  00:00        0.00
  JN_MSDP_TARP_236     JUNCTION  -nan(ind)     0.00  -296.17     0  00:00        0.00
  JN_MSDP_TARP_237     JUNCTION  -nan(ind)     0.00  -263.91     0  00:00        0.00
  JN_MSDP_TARP_238     JUNCTION  -nan(ind)     0.00  -294.29     0  00:00        0.00
  JN_MSDP_TARP_240     JUNCTION  -nan(ind)     0.00  -293.50     0  00:00        0.00
  JN_MSDP_TARP_241     JUNCTION  -nan(ind)     0.00  -266.00     0  00:00        0.00
  JN_MSDP_TARP_242     JUNCTION  -nan(ind)     0.00  -290.83     0  00:00        0.00
  JN_MSDP_TARP_243     JUNCTION  -nan(ind)     0.00  -288.16     0  00:00        0.00
  JN_MSDP_TARP_244     JUNCTION  -nan(ind)     0.00  -285.49     0  00:00        0.00
  JN_MSDP_TARP_245     JUNCTION  -nan(ind)     0.00  -260.24     0  00:00        0.00
  JN_MSDP_TARP_246     JUNCTION  -nan(ind)     0.00  -215.86     0  00:00        0.00
  JN_MSDP_TARP_248     JUNCTION  -nan(ind)     0.00  -282.81     0  00:00        0.00
  JN_MSDP_TARP_249     JUNCTION  -nan(ind)     0.00  -280.14     0  00:00        0.00
  JN_MSDP_TARP_250     JUNCTION  -nan(ind)     0.00  -277.60     0  00:00        0.00
  JN_MSDP_TARP_251     JUNCTION  -nan(ind)     0.00  -274.93     0  00:00        0.00
  JN_MSDP_TARP_252     JUNCTION  -nan(ind)     0.00  -272.25     0  00:00        0.00
  JN_MSDP_TARP_253     JUNCTION  -nan(ind)     0.00  -269.58     0  00:00        0.00
  JN_MSDP_TARP_254     JUNCTION  -nan(ind)     0.00  -266.91     0  00:00        0.00
  JN_MSDP_TARP_255     JUNCTION  -nan(ind)     0.00  -264.24     0  00:00        0.00
  JN_MSDP_TARP_256     JUNCTION  -nan(ind)     0.00  -261.57     0  00:00        0.00
  JN_MSDP_TARP_257     JUNCTION  -nan(ind)     0.00  -258.89     0  00:00        0.00
  JN_MSDP_TARP_258     JUNCTION  -nan(ind)     0.00  -256.97     0  00:00        0.00
  JN_MSDP_TARP_259     JUNCTION  -nan(ind)     0.00  -256.47     0  00:00        0.00
  JN_MSDP_TARP_260     JUNCTION  -nan(ind)     0.00  -256.03     0  00:00        0.00
  JN_MSDP_TARP_261     JUNCTION  -nan(ind)     0.00  -190.14     0  00:00        0.00
  JN_MSDP_TARP_262     JUNCTION  -nan(ind)     0.00  -255.58     0  00:00        0.00
  JN_MSDP_TARP_263     JUNCTION  -nan(ind)     0.00  -254.86     0  00:00        0.00
  JN_MSDP_TARP_264     JUNCTION  -nan(ind)     0.00  -187.28     0  00:00        0.00
  JN_MSDP_TARP_265     JUNCTION  -nan(ind)     0.00  -254.49     0  00:00        0.00
  JN_MSDP_TARP_266     JUNCTION  -nan(ind)     0.00  -184.89     0  00:00        0.00
  JN_MSDP_TARP_267     JUNCTION  -nan(ind)     0.00  -158.67     0  00:00        0.00
  JN_MSDP_TARP_268     JUNCTION  -nan(ind)     0.00  -160.41     0  00:00        0.00
  JN_MSDP_TARP_269     JUNCTION  -nan(ind)     0.00  -163.97     0  00:00        0.00
  JN_MSDP_TARP_270     JUNCTION  -nan(ind)     0.00  -165.45     0  00:00        0.00
  JN_MSDP_TARP_271     JUNCTION  -nan(ind)     0.00  -169.55     0  00:00        0.00
  JN_MSDP_TARP_272     JUNCTION  -nan(ind)     0.00  -182.34     0  00:00        0.00
  JN_MSDP_TARP_273     JUNCTION  -nan(ind)     0.00  -170.49     0  00:00        0.00
  JN_MSDP_TARP_274     JUNCTION  -nan(ind)     0.00  -175.12     0  00:00        0.00
  JN_MSDP_TARP_275     JUNCTION  -nan(ind)     0.00  -180.69     0  00:00        0.00
  JN_MSDP_TARP_276     JUNCTION  -nan(ind)     0.00  -153.27     0  00:00        0.00
  JN_MSDP_TARP_277     JUNCTION  -nan(ind)     0.00  -152.85     0  00:00        0.00
  JN_MSDP_TARP_278     JUNCTION  -nan(ind)     0.00  -246.76     0  00:00        0.00
  JN_MSDP_TARP_279     JUNCTION  -nan(ind)     0.00  -246.59     0  00:00        0.00
  JN_MSDP_TARP_280     JUNCTION  -nan(ind)     0.00  -142.72     0  00:00        0.00
  JN_MSDP_TARP_281     JUNCTION  -nan(ind)     0.00  -244.61     0  00:00        0.00
  JN_MSDP_TARP_282     JUNCTION  -nan(ind)     0.00  -243.52     0  00:00        0.00
  JN_MSDP_TARP_283     JUNCTION  -nan(ind)     0.00  -244.48     0  00:00        0.00
  JN_MSDP_TARP_284     JUNCTION  -nan(ind)     0.00  -242.94     0  00:00        0.00
  JN_MSDP_TARP_285     JUNCTION  -nan(ind)     0.00  -242.73     0  00:00        0.00
  JN_MSDP_TARP_286     JUNCTION  -nan(ind)     0.00  -240.75     0  00:00        0.00
  JN_MSDP_TARP_287     JUNCTION  -nan(ind)     0.00  -227.41     0  00:00        0.00
  JN_MSDP_TARP_288     JUNCTION  -nan(ind)     0.00  -225.00     0  00:00        0.00
  JN_MSDP_TARP_289     JUNCTION  -nan(ind)     0.00  -222.18     0  00:00        0.00
  JN_MSDP_TARP_290     JUNCTION  -nan(ind)     0.00  -221.79     0  00:00        0.00
  JN_MSDP_TARP_291     JUNCTION  -nan(ind)     0.00  -221.61     0  00:00        0.00
  JN_MSDP_TARP_292     JUNCTION  -nan(ind)     0.00  -218.79     0  00:00        0.00
  JN_MSDP_TARP_293     JUNCTION  -nan(ind)     0.00  -217.55     0  00:00        0.00
  JN_MSDP_TARP_294     JUNCTION  -nan(ind)     0.00  -216.31     0  00:00        0.00
  JN_MSDP_TARP_295     JUNCTION  -nan(ind)     0.00  -192.25     0  00:00        0.00
  JN_MSDP_TARP_296     JUNCTION  -nan(ind)     0.00  -215.07     0  00:00        0.00
  JN_MSDP_TARP_297     JUNCTION  -nan(ind)     0.00  -213.82     0  00:00        0.00
  JN_MSDP_TARP_298     JUNCTION  -nan(ind)     0.00  -200.72     0  00:00        0.00
  JN_MSDP_TARP_299     JUNCTION  -nan(ind)     0.00  -202.67     0  00:00        0.00
  JN_MSDP_TARP_300     JUNCTION  -nan(ind)     0.00  -204.63     0  00:00        0.00
  JN_MSDP_TARP_301     JUNCTION  -nan(ind)     0.00  -206.59     0  00:00        0.00
  JN_MSDP_TARP_302     JUNCTION  -nan(ind)     0.00  -208.54     0  00:00        0.00
  JN_MSDP_TARP_303     JUNCTION  -nan(ind)     0.00  -210.50     0  00:00        0.00
  JN_MSDP_TARP_304     JUNCTION  -nan(ind)     0.00  -219.92     0  00:00        0.00
  JN_MSDP_TARP_305     JUNCTION  -nan(ind)     0.00  -218.27     0  00:00        0.00
  JN_MSDP_TARP_306     JUNCTION  -nan(ind)     0.00  -214.97     0  00:00        0.00
  JN_MSDP_TARP_307     JUNCTION  -nan(ind)     0.00  -207.77     0  00:00        0.00
  JN_MSDP_TARP_308     JUNCTION  -nan(ind)     0.00  -204.37     0  00:00        0.00
  JN_MSDP_TARP_309     JUNCTION  -nan(ind)     0.00  -200.37     0  00:00        0.00
  JN_MSDP_TARP_310     JUNCTION  -nan(ind)     0.00  -190.33     0  00:00        0.00
  JN_MSDP_TARP_311     JUNCTION  -nan(ind)     0.00  -189.04     0  00:00        0.00
  JN_MSDP_TARP_312     JUNCTION  -nan(ind)     0.00  -185.77     0  00:00        0.00
  JN_MSDP_TARP_313     JUNCTION  -nan(ind)     0.00  -184.55     0  00:00        0.00
  JN_MSDP_TARP_314     JUNCTION  -nan(ind)     0.00  -145.13     0  00:00        0.00
  JN_MSDP_TARP_315     JUNCTION  -nan(ind)     0.00   -15.54     0  00:00        0.00
  JN_MSDP_TARP_316     JUNCTION  -nan(ind)     0.00   -14.08     0  00:00        0.00
  JN_MSDP_TARP_317     JUNCTION  -nan(ind)     0.00   -12.08     0  00:00        0.00
  JN_MSDP_TARP_318     JUNCTION  -nan(ind)     0.00  -252.44     0  00:00        0.00
  JN_MSDP_TARP_319     JUNCTION  -nan(ind)     0.00  -255.14     0  00:00        0.00
  JN_MSDP_TARP_320     JUNCTION  -nan(ind)     0.00  -254.19     0  00:00        0.00
  JN_MSDP_TARP_321     JUNCTION  -nan(ind)     0.00  -241.03     0  00:00        0.00
  JN_MSDP_TARP_322     JUNCTION  -nan(ind)     0.00  -237.69     0  00:00        0.00
  JN_MSDP_TARP_323     JUNCTION  -nan(ind)     0.00  -236.18     0  00:00        0.00
  JN_MSDP_TARP_324     JUNCTION  -nan(ind)     0.00  -235.59     0  00:00        0.00
  JN_MSDP_TARP_325     JUNCTION  -nan(ind)     0.00  -251.62     0  00:00        0.00
  JN_MSDP_TARP_326     JUNCTION  -nan(ind)     0.00  -250.07     0  00:00        0.00
  JN_MSDP_TARP_327     JUNCTION  -nan(ind)     0.00  -249.89     0  00:00        0.00
  JN_MSDP_TARP_328     JUNCTION  -nan(ind)     0.00  -249.18     0  00:00        0.00
  JN_MSDP_TARP_329     JUNCTION  -nan(ind)     0.00  -248.80     0  00:00        0.00
  JN_MSDP_TARP_330     JUNCTION  -nan(ind)     0.00  -249.24     0  00:00        0.00
  JN_MSDP_TARP_331     JUNCTION  -nan(ind)     0.00  -249.13     0  00:00        0.00
  JN_MSDP_TARP_332     JUNCTION  -nan(ind)     0.00  -248.84     0  00:00        0.00
  JN_MSDP_TARP_333     JUNCTION  -nan(ind)     0.00  -313.50     0  00:00        0.00
  JN_MSDP_TARP_334     JUNCTION  -nan(ind)     0.00  -308.80     0  00:00        0.00
  JN_MSDP_TARP_343     JUNCTION  -nan(ind)     0.00  -315.71     0  00:00        0.00
  JN_MSDP_TARP_344     JUNCTION  -nan(ind)     0.00  -315.96     0  00:00        0.00
  JN_MSDP_TARP_345     JUNCTION  -nan(ind)     0.00  -156.71     0  00:00        0.00
  JN_MSDP_TARP_346     JUNCTION  -nan(ind)     0.00  -264.30     0  00:00        0.00
  JN_MSDP_TARP_347     JUNCTION  -nan(ind)     0.00  -219.51     0  00:00        0.00
  JN_MSDP_TARP_348     JUNCTION  -nan(ind)     0.00  -160.01     0  00:00        0.00
  JN_MSDP_TARP_349     JUNCTION  -nan(ind)     0.00  -194.35     0  00:00        0.00
  OFALL-10             OUTFALL   -nan(ind)     0.00   100.00     0  00:00        0.00
  STOR-10              STORAGE   -nan(ind)     0.00  -304.00     0  00:00        0.00
  
  
  *******************
  Node Inflow Summary
  *******************
  
  -------------------------------------------------------------------------------------------------
                                  Maximum  Maximum                  Lateral       Total        Flow
[...]
  C_MSDP_TARP_254         1.00   -nan(ind)  -nan(ind)  -nan(ind)  -nan(ind)  -nan(ind)  -nan(ind)  -nan(ind)  -nan(ind)  -nan(ind)
  C_MSDP_TARP_255         1.00   -nan(ind)  -nan(ind)  -nan(ind)  -nan(ind)  -nan(ind)  -nan(ind)  -nan(ind)  -nan(ind)  -nan(ind)
  C_MSDP_TARP_257         1.00   -nan(ind)  -nan(ind)  -nan(ind)  -nan(ind)  -nan(ind)  -nan(ind)  -nan(ind)  -nan(ind)  -nan(ind)
  C_MSDP_TARP_258         1.00   -nan(ind)  -nan(ind)  -nan(ind)  -nan(ind)  -nan(ind)  -nan(ind)  -nan(ind)  -nan(ind)  -nan(ind)
  C_MSDP_TARP_259         1.00   -nan(ind)  -nan(ind)  -nan(ind)  -nan(ind)  -nan(ind)  -nan(ind)  -nan(ind)  -nan(ind)  -nan(ind)
  C_MSDP_TARP_260         1.00   -nan(ind)  -nan(ind)  -nan(ind)  -nan(ind)  -nan(ind)  -nan(ind)  -nan(ind)  -nan(ind)  -nan(ind)
  C_MSDP_TARP_261         1.00   -nan(ind)  -nan(ind)  -nan(ind)  -nan(ind)  -nan(ind)  -nan(ind)  -nan(ind)  -nan(ind)  -nan(ind)
  C_MSDP_TARP_262         1.40   -nan(ind)  -nan(ind)  -nan(ind)  -nan(ind)  -nan(ind)  -nan(ind)  -nan(ind)  -nan(ind)  -nan(ind)
  C_MSDP_TARP_264         1.00   -nan(ind)  -nan(ind)  -nan(ind)  -nan(ind)  -nan(ind)  -nan(ind)  -nan(ind)  -nan(ind)  -nan(ind)
  C_MSDP_TARP_265         1.00   -nan(ind)  -nan(ind)  -nan(ind)  -nan(ind)  -nan(ind)  -nan(ind)  -nan(ind)  -nan(ind)  -nan(ind)
  C_MSDP_TARP_266         1.48   -nan(ind)  -nan(ind)  -nan(ind)  -nan(ind)  -nan(ind)  -nan(ind)  -nan(ind)  -nan(ind)  -nan(ind)
  C_MSDP_TARP_267         1.00   -nan(ind)  -nan(ind)  -nan(ind)  -nan(ind)  -nan(ind)  -nan(ind)  -nan(ind)  -nan(ind)  -nan(ind)
  C_MSDP_TARP_268         1.00   -nan(ind)  -nan(ind)  -nan(ind)  -nan(ind)  -nan(ind)  -nan(ind)  -nan(ind)  -nan(ind)  -nan(ind)
  C_MSDP_TARP_269         1.00   -nan(ind)  -nan(ind)  -nan(ind)  -nan(ind)  -nan(ind)  -nan(ind)  -nan(ind)  -nan(ind)  -nan(ind)
  C_MSDP_TARP_270         1.00   -nan(ind)  -nan(ind)  -nan(ind)  -nan(ind)  -nan(ind)  -nan(ind)  -nan(ind)  -nan(ind)  -nan(ind)
  C_MSDP_TARP_271         1.00   -nan(ind)  -nan(ind)  -nan(ind)  -nan(ind)  -nan(ind)  -nan(ind)  -nan(ind)  -nan(ind)  -nan(ind)
  C_MSDP_TARP_272         1.00   -nan(ind)  -nan(ind)  -nan(ind)  -nan(ind)  -nan(ind)  -nan(ind)  -nan(ind)  -nan(ind)  -nan(ind)
  C_MSDP_TARP_273         1.00   -nan(ind)  -nan(ind)  -nan(ind)  -nan(ind)  -nan(ind)  -nan(ind)  -nan(ind)  -nan(ind)  -nan(ind)
  C_MSDP_TARP_274         1.00   -nan(ind)  -nan(ind)  -nan(ind)  -nan(ind)  -nan(ind)  -nan(ind)  -nan(ind)  -nan(ind)  -nan(ind)
  C_MSDP_TARP_275         1.00   -nan(ind)  -nan(ind)  -nan(ind)  -nan(ind)  -nan(ind)  -nan(ind)  -nan(ind)  -nan(ind)  -nan(ind)
  C_MSDP_TARP_276         1.00   -nan(ind)  -nan(ind)  -nan(ind)  -nan(ind)  -nan(ind)  -nan(ind)  -nan(ind)  -nan(ind)  -nan(ind)
  C_MSDP_TARP_277         1.00   -nan(ind)  -nan(ind)  -nan(ind)  -nan(ind)  -nan(ind)  -nan(ind)  -nan(ind)  -nan(ind)  -nan(ind)
  C_MSDP_TARP_278         1.00   -nan(ind)  -nan(ind)  -nan(ind)  -nan(ind)  -nan(ind)  -nan(ind)  -nan(ind)  -nan(ind)  -nan(ind)
  C_MSDP_TARP_279         1.00   -nan(ind)  -nan(ind)  -nan(ind)  -nan(ind)  -nan(ind)  -nan(ind)  -nan(ind)  -nan(ind)  -nan(ind)
  C_MSDP_TARP_280         1.00   -nan(ind)  -nan(ind)  -nan(ind)  -nan(ind)  -nan(ind)  -nan(ind)  -nan(ind)  -nan(ind)  -nan(ind)
  C_MSDP_TARP_281         1.00   -nan(ind)  -nan(ind)  -nan(ind)  -nan(ind)  -nan(ind)  -nan(ind)  -nan(ind)  -nan(ind)  -nan(ind)
  C_MSDP_TARP_282         1.00   -nan(ind)  -nan(ind)  -nan(ind)  -nan(ind)  -nan(ind)  -nan(ind)  -nan(ind)  -nan(ind)  -nan(ind)
  C_MSDP_TARP_283         1.00   -nan(ind)  -nan(ind)  -nan(ind)  -nan(ind)  -nan(ind)  -nan(ind)  -nan(ind)  -nan(ind)  -nan(ind)
  C_MSDP_TARP_284         1.00   -nan(ind)  -nan(ind)  -nan(ind)  -nan(ind)  -nan(ind)  -nan(ind)  -nan(ind)  -nan(ind)  -nan(ind)
  C_MSDP_TARP_285         1.00   -nan(ind)  -nan(ind)  -nan(ind)  -nan(ind)  -nan(ind)  -nan(ind)  -nan(ind)  -nan(ind)  -nan(ind)
  C_MSDP_TARP_286         1.00   -nan(ind)  -nan(ind)  -nan(ind)  -nan(ind)  -nan(ind)  -nan(ind)  -nan(ind)  -nan(ind)  -nan(ind)
  C_MSDP_TARP_288         1.00   -nan(ind)  -nan(ind)  -nan(ind)  -nan(ind)  -nan(ind)  -nan(ind)  -nan(ind)  -nan(ind)  -nan(ind)
  C_MSDP_TARP_289         1.00   -nan(ind)  -nan(ind)  -nan(ind)  -nan(ind)  -nan(ind)  -nan(ind)  -nan(ind)  -nan(ind)  -nan(ind)
  C_MSDP_TARP_290         1.00   -nan(ind)  -nan(ind)  -nan(ind)  -nan(ind)  -nan(ind)  -nan(ind)  -nan(ind)  -nan(ind)  -nan(ind)
  C_MSDP_TARP_291         1.00   -nan(ind)  -nan(ind)  -nan(ind)  -nan(ind)  -nan(ind)  -nan(ind)  -nan(ind)  -nan(ind)  -nan(ind)
  C_MSDP_TARP_292         1.00   -nan(ind)  -nan(ind)  -nan(ind)  -nan(ind)  -nan(ind)  -nan(ind)  -nan(ind)  -nan(ind)  -nan(ind)
  C_MSDP_TARP_293         1.00   -nan(ind)  -nan(ind)  -nan(ind)  -nan(ind)  -nan(ind)  -nan(ind)  -nan(ind)  -nan(ind)  -nan(ind)
  C_MSDP_TARP_294         1.00   -nan(ind)  -nan(ind)  -nan(ind)  -nan(ind)  -nan(ind)  -nan(ind)  -nan(ind)  -nan(ind)  -nan(ind)
  C_MSDP_TARP_295         1.00   -nan(ind)  -nan(ind)  -nan(ind)  -nan(ind)  -nan(ind)  -nan(ind)  -nan(ind)  -nan(ind)  -nan(ind)
  C_MSDP_TARP_296         1.00   -nan(ind)  -nan(ind)  -nan(ind)  -nan(ind)  -nan(ind)  -nan(ind)  -nan(ind)  -nan(ind)  -nan(ind)
  C_MSDP_TARP_297         1.00   -nan(ind)  -nan(ind)  -nan(ind)  -nan(ind)  -nan(ind)  -nan(ind)  -nan(ind)  -nan(ind)  -nan(ind)
  C_MSDP_TARP_298         1.00   -nan(ind)  -nan(ind)  -nan(ind)  -nan(ind)  -nan(ind)  -nan(ind)  -nan(ind)  -nan(ind)  -nan(ind)
  C_MSDP_TARP_299         1.00   -nan(ind)  -nan(ind)  -nan(ind)  -nan(ind)  -nan(ind)  -nan(ind)  -nan(ind)  -nan(ind)  -nan(ind)
  C_MSDP_TARP_300         1.00   -nan(ind)  -nan(ind)  -nan(ind)  -nan(ind)  -nan(ind)  -nan(ind)  -nan(ind)  -nan(ind)  -nan(ind)
  C_MSDP_TARP_301         1.00   -nan(ind)  -nan(ind)  -nan(ind)  -nan(ind)  -nan(ind)  -nan(ind)  -nan(ind)  -nan(ind)  -nan(ind)
  C_MSDP_TARP_302         1.00   -nan(ind)  -nan(ind)  -nan(ind)  -nan(ind)  -nan(ind)  -nan(ind)  -nan(ind)  -nan(ind)  -nan(ind)
  C_MSDP_TARP_303         1.00   -nan(ind)  -nan(ind)  -nan(ind)  -nan(ind)  -nan(ind)  -nan(ind)  -nan(ind)  -nan(ind)  -nan(ind)
  C_MSDP_TARP_304         1.00   -nan(ind)  -nan(ind)  -nan(ind)  -nan(ind)  -nan(ind)  -nan(ind)  -nan(ind)  -nan(ind)  -nan(ind)
  C_MSDP_TARP_305         1.00   -nan(ind)  -nan(ind)  -nan(ind)  -nan(ind)  -nan(ind)  -nan(ind)  -nan(ind)  -nan(ind)  -nan(ind)
  C_MSDP_TARP_306         1.00   -nan(ind)  -nan(ind)  -nan(ind)  -nan(ind)  -nan(ind)  -nan(ind)  -nan(ind)  -nan(ind)  -nan(ind)
  C_MSDP_TARP_307         1.00   -nan(ind)  -nan(ind)  -nan(ind)  -nan(ind)  -nan(ind)  -nan(ind)  -nan(ind)  -nan(ind)  -nan(ind)
  C_MSDP_TARP_308         1.00   -nan(ind)  -nan(ind)  -nan(ind)  -nan(ind)  -nan(ind)  -nan(ind)  -nan(ind)  -nan(ind)  -nan(ind)
  C_MSDP_TARP_309         1.00   -nan(ind)  -nan(ind)  -nan(ind)  -nan(ind)  -nan(ind)  -nan(ind)  -nan(ind)  -nan(ind)  -nan(ind)
  C_MSDP_TARP_310         1.00   -nan(ind)  -nan(ind)  -nan(ind)  -nan(ind)  -nan(ind)  -nan(ind)  -nan(ind)  -nan(ind)  -nan(ind)
  C_MSDP_TARP_311         1.00   -nan(ind)  -nan(ind)  -nan(ind)  -nan(ind)  -nan(ind)  -nan(ind)  -nan(ind)  -nan(ind)  -nan(ind)
  C_MSDP_TARP_312         1.00   -nan(ind)  -nan(ind)  -nan(ind)  -nan(ind)  -nan(ind)  -nan(ind)  -nan(ind)  -nan(ind)  -nan(ind)
  C_MSDP_TARP_313         1.00   -nan(ind)  -nan(ind)  -nan(ind)  -nan(ind)  -nan(ind)  -nan(ind)  -nan(ind)  -nan(ind)  -nan(ind)
  C_MSDP_TARP_314         1.00   -nan(ind)  -nan(ind)  -nan(ind)  -nan(ind)  -nan(ind)  -nan(ind)  -nan(ind)  -nan(ind)  -nan(ind)
  C_MSDP_TARP_315         1.00   -nan(ind)  -nan(ind)  -nan(ind)  -nan(ind)  -nan(ind)  -nan(ind)  -nan(ind)  -nan(ind)  -nan(ind)
  C_MSDP_TARP_316         1.00   -nan(ind)  -nan(ind)  -nan(ind)  -nan(ind)  -nan(ind)  -nan(ind)  -nan(ind)  -nan(ind)  -nan(ind)
  C_MSDP_TARP_317         1.00   -nan(ind)  -nan(ind)  -nan(ind)  -nan(ind)  -nan(ind)  -nan(ind)  -nan(ind)  -nan(ind)  -nan(ind)
  C_MSDP_TARP_318         1.00   -nan(ind)  -nan(ind)  -nan(ind)  -nan(ind)  -nan(ind)  -nan(ind)  -nan(ind)  -nan(ind)  -nan(ind)
  C_MSDP_TARP_319         1.00   -nan(ind)  -nan(ind)  -nan(ind)  -nan(ind)  -nan(ind)  -nan(ind)  -nan(ind)  -nan(ind)  -nan(ind)
  C_MSDP_TARP_320         1.00   -nan(ind)  -nan(ind)  -nan(ind)  -nan(ind)  -nan(ind)  -nan(ind)  -nan(ind)  -nan(ind)  -nan(ind)
  C_MSDP_TARP_321         1.00   -nan(ind)  -nan(ind)  -nan(ind)  -nan(ind)  -nan(ind)  -nan(ind)  -nan(ind)  -nan(ind)  -nan(ind)
  C_MSDP_TARP_322         1.00   -nan(ind)  -nan(ind)  -nan(ind)  -nan(ind)  -nan(ind)  -nan(ind)  -nan(ind)  -nan(ind)  -nan(ind)
  C_MSDP_TARP_323         1.00   -nan(ind)  -nan(ind)  -nan(ind)  -nan(ind)  -nan(ind)  -nan(ind)  -nan(ind)  -nan(ind)  -nan(ind)
  C_MSDP_TARP_324         1.00   -nan(ind)  -nan(ind)  -nan(ind)  -nan(ind)  -nan(ind)  -nan(ind)  -nan(ind)  -nan(ind)  -nan(ind)
  C_MSDP_TARP_325         1.00   -nan(ind)  -nan(ind)  -nan(ind)  -nan(ind)  -nan(ind)  -nan(ind)  -nan(ind)  -nan(ind)  -nan(ind)
  C_MSDP_TARP_326         1.00   -nan(ind)  -nan(ind)  -nan(ind)  -nan(ind)  -nan(ind)  -nan(ind)  -nan(ind)  -nan(ind)  -nan(ind)
  C_MSDP_TARP_327         1.00   -nan(ind)  -nan(ind)  -nan(ind)  -nan(ind)  -nan(ind)  -nan(ind)  -nan(ind)  -nan(ind)  -nan(ind)
  C_MSDP_TARP_328         1.00   -nan(ind)  -nan(ind)  -nan(ind)  -nan(ind)  -nan(ind)  -nan(ind)  -nan(ind)  -nan(ind)  -nan(ind)
  C_MSDP_TARP_329         1.00   -nan(ind)  -nan(ind)  -nan(ind)  -nan(ind)  -nan(ind)  -nan(ind)  -nan(ind)  -nan(ind)  -nan(ind)
  C_MSDP_TARP_330         1.00   -nan(ind)  -nan(ind)  -nan(ind)  -nan(ind)  -nan(ind)  -nan(ind)  -nan(ind)  -nan(ind)  -nan(ind)
  C_MSDP_TARP_331         1.00   -nan(ind)  -nan(ind)  -nan(ind)  -nan(ind)  -nan(ind)  -nan(ind)  -nan(ind)  -nan(ind)  -nan(ind)
  C_MSDP_TARP_333         1.00   -nan(ind)  -nan(ind)  -nan(ind)  -nan(ind)  -nan(ind)  -nan(ind)  -nan(ind)  -nan(ind)  -nan(ind)
  C_MSDP_TARP_334         1.00   -nan(ind)  -nan(ind)  -nan(ind)  -nan(ind)  -nan(ind)  -nan(ind)  -nan(ind)  -nan(ind)  -nan(ind)
  C_MSDP_TARP_335         1.00   -nan(ind)  -nan(ind)  -nan(ind)  -nan(ind)  -nan(ind)  -nan(ind)  -nan(ind)  -nan(ind)  -nan(ind)
  C_MSDP_TARP_341         1.54   -nan(ind)  -nan(ind)  -nan(ind)  -nan(ind)  -nan(ind)  -nan(ind)  -nan(ind)  -nan(ind)  -nan(ind)
  C_MSDP_TARP_342         1.00   -nan(ind)  -nan(ind)  -nan(ind)  -nan(ind)  -nan(ind)  -nan(ind)  -nan(ind)  -nan(ind)  -nan(ind)
  DUMMYOUTFALLLINK        1.00   -nan(ind)  -nan(ind)  -nan(ind)  -nan(ind)  -nan(ind)  -nan(ind)  -nan(ind)  -nan(ind)  -nan(ind)
  LF01                    1.00   -nan(ind)  -nan(ind)  -nan(ind)  -nan(ind)  -nan(ind)  -nan(ind)  -nan(ind)  -nan(ind)  -nan(ind)
  LF02A                   1.00   -nan(ind)  -nan(ind)  -nan(ind)  -nan(ind)  -nan(ind)  -nan(ind)  -nan(ind)  -nan(ind)  -nan(ind)
  LF02B                   1.00   -nan(ind)  -nan(ind)  -nan(ind)  -nan(ind)  -nan(ind)  -nan(ind)  -nan(ind)  -nan(ind)  -nan(ind)
  LF03                    1.00   -nan(ind)  -nan(ind)  -nan(ind)  -nan(ind)  -nan(ind)  -nan(ind)  -nan(ind)  -nan(ind)  -nan(ind)
  LF04                    1.00   -nan(ind)  -nan(ind)  -nan(ind)  -nan(ind)  -nan(ind)  -nan(ind)  -nan(ind)  -nan(ind)  -nan(ind)
  LF05                    1.00   -nan(ind)  -nan(ind)  -nan(ind)  -nan(ind)  -nan(ind)  -nan(ind)  -nan(ind)  -nan(ind)  -nan(ind)
  LF06                    1.00   -nan(ind)  -nan(ind)  -nan(ind)  -nan(ind)  -nan(ind)  -nan(ind)  -nan(ind)  -nan(ind)  -nan(ind)
  LF07                    1.00   -nan(ind)  -nan(ind)  -nan(ind)  -nan(ind)  -nan(ind)  -nan(ind)  -nan(ind)  -nan(ind)  -nan(ind)
  LF08                    1.00   -nan(ind)  -nan(ind)  -nan(ind)  -nan(ind)  -nan(ind)  -nan(ind)  -nan(ind)  -nan(ind)  -nan(ind)
  LF09                    1.00   -nan(ind)  -nan(ind)  -nan(ind)  -nan(ind)  -nan(ind)  -nan(ind)  -nan(ind)  -nan(ind)  -nan(ind)
  LF10                    1.00   -nan(ind)  -nan(ind)  -nan(ind)  -nan(ind)  -nan(ind)  -nan(ind)  -nan(ind)  -nan(ind)  -nan(ind)
  LF11                    1.00   -nan(ind)  -nan(ind)  -nan(ind)  -nan(ind)  -nan(ind)  -nan(ind)  -nan(ind)  -nan(ind)  -nan(ind)
  LF12                    1.00   -nan(ind)  -nan(ind)  -nan(ind)  -nan(ind)  -nan(ind)  -nan(ind)  -nan(ind)  -nan(ind)  -nan(ind)
  LF13                    1.00   -nan(ind)  -nan(ind)  -nan(ind)  -nan(ind)  -nan(ind)  -nan(ind)  -nan(ind)  -nan(ind)  -nan(ind)
  LF14                    1.00   -nan(ind)  -nan(ind)  -nan(ind)  -nan(ind)  -nan(ind)  -nan(ind)  -nan(ind)  -nan(ind)  -nan(ind)
  LF15                    1.00   -nan(ind)  -nan(ind)  -nan(ind)  -nan(ind)  -nan(ind)  -nan(ind)  -nan(ind)  -nan(ind)  -nan(ind)
  LF16                    1.00   -nan(ind)  -nan(ind)  -nan(ind)  -nan(ind)  -nan(ind)  -nan(ind)  -nan(ind)  -nan(ind)  -nan(ind)
  LF17A                   1.00   -nan(ind)  -nan(ind)  -nan(ind)  -nan(ind)  -nan(ind)  -nan(ind)  -nan(ind)  -nan(ind)  -nan(ind)
  LF17B                   1.00   -nan(ind)  -nan(ind)  -nan(ind)  -nan(ind)  -nan(ind)  -nan(ind)  -nan(ind)  -nan(ind)  -nan(ind)
  LF18                    1.00   -nan(ind)  -nan(ind)  -nan(ind)  -nan(ind)  -nan(ind)  -nan(ind)  -nan(ind)  -nan(ind)  -nan(ind)
  LF19                    1.00   -nan(ind)  -nan(ind)  -nan(ind)  -nan(ind)  -nan(ind)  -nan(ind)  -nan(ind)  -nan(ind)  -nan(ind)
  LF20                    1.00   -nan(ind)  -nan(ind)  -nan(ind)  -nan(ind)  -nan(ind)  -nan(ind)  -nan(ind)  -nan(ind)  -nan(ind)
  LF21                    1.00   -nan(ind)  -nan(ind)  -nan(ind)  -nan(ind)  -nan(ind)  -nan(ind)  -nan(ind)  -nan(ind)  -nan(ind)
  LF22                    1.00   -nan(ind)  -nan(ind)  -nan(ind)  -nan(ind)  -nan(ind)  -nan(ind)  -nan(ind)  -nan(ind)  -nan(ind)
  LF23                    1.00   -nan(ind)  -nan(ind)  -nan(ind)  -nan(ind)  -nan(ind)  -nan(ind)  -nan(ind)  -nan(ind)  -nan(ind)
  LF24                    1.00   -nan(ind)  -nan(ind)  -nan(ind)  -nan(ind)  -nan(ind)  -nan(ind)  -nan(ind)  -nan(ind)  -nan(ind)
  LF25                    1.00   -nan(ind)  -nan(ind)  -nan(ind)  -nan(ind)  -nan(ind)  -nan(ind)  -nan(ind)  -nan(ind)  -nan(ind)
  LF26                    1.00   -nan(ind)  -nan(ind)  -nan(ind)  -nan(ind)  -nan(ind)  -nan(ind)  -nan(ind)  -nan(ind)  -nan(ind)
  LF27                    1.00   -nan(ind)  -nan(ind)  -nan(ind)  -nan(ind)  -nan(ind)  -nan(ind)  -nan(ind)  -nan(ind)  -nan(ind)
  LF28                    1.00   -nan(ind)  -nan(ind)  -nan(ind)  -nan(ind)  -nan(ind)  -nan(ind)  -nan(ind)  -nan(ind)  -nan(ind)
  LF29                    1.00   -nan(ind)  -nan(ind)  -nan(ind)  -nan(ind)  -nan(ind)  -nan(ind)  -nan(ind)  -nan(ind)  -nan(ind)
  LF30                    1.00   -nan(ind)  -nan(ind)  -nan(ind)  -nan(ind)  -nan(ind)  -nan(ind)  -nan(ind)  -nan(ind)  -nan(ind)
  LF31                    1.00   -nan(ind)  -nan(ind)  -nan(ind)  -nan(ind)  -nan(ind)  -nan(ind)  -nan(ind)  -nan(ind)  -nan(ind)
  LF32                    1.00   -nan(ind)  -nan(ind)  -nan(ind)  -nan(ind)  -nan(ind)  -nan(ind)  -nan(ind)  -nan(ind)  -nan(ind)
  LF33                    1.00   -nan(ind)  -nan(ind)  -nan(ind)  -nan(ind)  -nan(ind)  -nan(ind)  -nan(ind)  -nan(ind)  -nan(ind)
  LF34                    1.00   -nan(ind)  -nan(ind)  -nan(ind)  -nan(ind)  -nan(ind)  -nan(ind)  -nan(ind)  -nan(ind)  -nan(ind)
  LF35                    1.00   -nan(ind)  -nan(ind)  -nan(ind)  -nan(ind)  -nan(ind)  -nan(ind)  -nan(ind)  -nan(ind)  -nan(ind)
  LF36                    1.00   -nan(ind)  -nan(ind)  -nan(ind)  -nan(ind)  -nan(ind)  -nan(ind)  -nan(ind)  -nan(ind)  -nan(ind)
  LF37                    1.00   -nan(ind)  -nan(ind)  -nan(ind)  -nan(ind)  -nan(ind)  -nan(ind)  -nan(ind)  -nan(ind)  -nan(ind)
  LF38                    1.00   -nan(ind)  -nan(ind)  -nan(ind)  -nan(ind)  -nan(ind)  -nan(ind)  -nan(ind)  -nan(ind)  -nan(ind)
  LF39                    1.00   -nan(ind)  -nan(ind)  -nan(ind)  -nan(ind)  -nan(ind)  -nan(ind)  -nan(ind)  -nan(ind)  -nan(ind)
  LF40                    1.00   -nan(ind)  -nan(ind)  -nan(ind)  -nan(ind)  -nan(ind)  -nan(ind)  -nan(ind)  -nan(ind)  -nan(ind)
  LF41                    1.00   -nan(ind)  -nan(ind)  -nan(ind)  -nan(ind)  -nan(ind)  -nan(ind)  -nan(ind)  -nan(ind)  -nan(ind)
  LF42                    1.00   -nan(ind)  -nan(ind)  -nan(ind)  -nan(ind)  -nan(ind)  -nan(ind)  -nan(ind)  -nan(ind)  -nan(ind)
  LF43                    1.00   -nan(ind)  -nan(ind)  -nan(ind)  -nan(ind)  -nan(ind)  -nan(ind)  -nan(ind)  -nan(ind)  -nan(ind)
  LF44                    1.00   -nan(ind)  -nan(ind)  -nan(ind)  -nan(ind)  -nan(ind)  -nan(ind)  -nan(ind)  -nan(ind)  -nan(ind)
  LF45                    1.00   -nan(ind)  -nan(ind)  -nan(ind)  -nan(ind)  -nan(ind)  -nan(ind)  -nan(ind)  -nan(ind)  -nan(ind)
  LF46                    1.00   -nan(ind)  -nan(ind)  -nan(ind)  -nan(ind)  -nan(ind)  -nan(ind)  -nan(ind)  -nan(ind)  -nan(ind)
  LF47                    1.00   -nan(ind)  -nan(ind)  -nan(ind)  -nan(ind)  -nan(ind)  -nan(ind)  -nan(ind)  -nan(ind)  -nan(ind)
  LF48                    1.00   -nan(ind)  -nan(ind)  -nan(ind)  -nan(ind)  -nan(ind)  -nan(ind)  -nan(ind)  -nan(ind)  -nan(ind)
  LF49                    1.00   -nan(ind)  -nan(ind)  -nan(ind)  -nan(ind)  -nan(ind)  -nan(ind)  -nan(ind)  -nan(ind)  -nan(ind)
  LF50                    1.00   -nan(ind)  -nan(ind)  -nan(ind)  -nan(ind)  -nan(ind)  -nan(ind)  -nan(ind)  -nan(ind)  -nan(ind)
  LF51                    1.00   -nan(ind)  -nan(ind)  -nan(ind)  -nan(ind)  -nan(ind)  -nan(ind)  -nan(ind)  -nan(ind)  -nan(ind)
  LF52                    1.00   -nan(ind)  -nan(ind)  -nan(ind)  -nan(ind)  -nan(ind)  -nan(ind)  -nan(ind)  -nan(ind)  -nan(ind)
  LF53                    1.00   -nan(ind)  -nan(ind)  -nan(ind)  -nan(ind)  -nan(ind)  -nan(ind)  -nan(ind)  -nan(ind)  -nan(ind)
  LF54                    1.00   -nan(ind)  -nan(ind)  -nan(ind)  -nan(ind)  -nan(ind)  -nan(ind)  -nan(ind)  -nan(ind)  -nan(ind)
  LF55                    1.00   -nan(ind)  -nan(ind)  -nan(ind)  -nan(ind)  -nan(ind)  -nan(ind)  -nan(ind)  -nan(ind)  -nan(ind)
  LF56                    1.00   -nan(ind)  -nan(ind)  -nan(ind)  -nan(ind)  -nan(ind)  -nan(ind)  -nan(ind)  -nan(ind)  -nan(ind)
  LF57                    1.00   -nan(ind)  -nan(ind)  -nan(ind)  -nan(ind)  -nan(ind)  -nan(ind)  -nan(ind)  -nan(ind)  -nan(ind)
  LF58                    1.00   -nan(ind)  -nan(ind)  -nan(ind)  -nan(ind)  -nan(ind)  -nan(ind)  -nan(ind)  -nan(ind)  -nan(ind)
  LF59                    1.00   -nan(ind)  -nan(ind)  -nan(ind)  -nan(ind)  -nan(ind)  -nan(ind)  -nan(ind)  -nan(ind)  -nan(ind)
  LF60                    1.00   -nan(ind)  -nan(ind)  -nan(ind)  -nan(ind)  -nan(ind)  -nan(ind)  -nan(ind)  -nan(ind)  -nan(ind)
  LF61                    1.00   -nan(ind)  -nan(ind)  -nan(ind)  -nan(ind)  -nan(ind)  -nan(ind)  -nan(ind)  -nan(ind)  -nan(ind)
  LF62                    1.00   -nan(ind)  -nan(ind)  -nan(ind)  -nan(ind)  -nan(ind)  -nan(ind)  -nan(ind)  -nan(ind)  -nan(ind)
  LF63                    1.00   -nan(ind)  -nan(ind)  -nan(ind)  -nan(ind)  -nan(ind)  -nan(ind)  -nan(ind)  -nan(ind)  -nan(ind)
  LF64                    1.00   -nan(ind)  -nan(ind)  -nan(ind)  -nan(ind)  -nan(ind)  -nan(ind)  -nan(ind)  -nan(ind)  -nan(ind)
  LF65                    1.00   -nan(ind)  -nan(ind)  -nan(ind)  -nan(ind)  -nan(ind)  -nan(ind)  -nan(ind)  -nan(ind)  -nan(ind)
  LF66                    1.00   -nan(ind)  -nan(ind)  -nan(ind)  -nan(ind)  -nan(ind)  -nan(ind)  -nan(ind)  -nan(ind)  -nan(ind)
  LF68                    1.00   -nan(ind)  -nan(ind)  -nan(ind)  -nan(ind)  -nan(ind)  -nan(ind)  -nan(ind)  -nan(ind)  -nan(ind)
  
  
  *************************
  Conduit Surcharge Summary
  *************************
  
  No conduits were surcharged.
  

  Analysis begun on:  Sat Nov 30 08:11:10 2019
  Analysis ended on:  Sat Nov 30 08:11:10 2019
  Total elapsed time: < 1 sec