
  EPA STORM WATER MANAGEMENT MODEL - VERSION 5.1 (Build 5.1.013)
  --------------------------------------------------------------

  WARNING 04: minimum elevation drop used for Conduit A5-2
  WARNING 04: minimum elevation drop used for Conduit B5-24
  WARNING 04: minimum elevation drop used for Conduit C11-24
  WARNING 04: minimum elevation drop used for Conduit C4-86
  WARNING 04: minimum elevation drop used for Conduit E12-117
  WARNING 04: minimum elevation drop used for Conduit E13-12
  WARNING 04: minimum elevation drop used for Conduit E7-135
  WARNING 04: minimum elevation drop used for Conduit E7-29
  WARNING 04: minimum elevation drop used for Conduit E8-83
  WARNING 04: minimum elevation drop used for Conduit E8-96
  WARNING 04: minimum elevation drop used for Conduit E8-97
  WARNING 04: minimum elevation drop used for Conduit F6-183
  WARNING 04: minimum elevation drop used for Conduit F6-200
  WARNING 04: minimum elevation drop used for Conduit G10-111
  WARNING 04: minimum elevation drop used for Conduit G8-127
  WARNING 08: elevation drop exceeds length for Conduit H5-78
  WARNING 02: maximum depth increased for Node MH-D06-068
  WARNING 02: maximum depth increased for Node MH-J06-014
  
  *********************************************************
  NOTE: The summary statistics displayed in this report are
  based on results found at every computational time step,  
  not just on results from each reporting time step.
  *********************************************************
  
  ****************
  Analysis Options
  ****************
  Flow Units ............... GPM
  Process Models:
    Rainfall/Runoff ........ NO
    RDII ................... NO
    Snowmelt ............... NO
    Groundwater ............ NO
    Flow Routing ........... YES
    Ponding Allowed ........ NO
    Water Quality .......... NO
  Flow Routing Method ...... DYNWAVE
  Surcharge Method ......... EXTRAN
  Starting Date ............ 01/01/2002 00:00:00
  Ending Date .............. 01/01/2002 12:00:00
  Antecedent Dry Days ...... 5.0
  Report Time Step ......... 00:05:00
  Routing Time Step ........ 300.00 sec
  Variable Time Step ....... YES
  Maximum Trials ........... 8
  Number of Threads ........ 1
  Head Tolerance ........... 0.005000 ft
  
  
  **************************        Volume        Volume
  Flow Routing Continuity        acre-feet      10^6 gal
  **************************     ---------     ---------
  Dry Weather Inflow .......        12.333         4.019
  Wet Weather Inflow .......         0.000         0.000
  Groundwater Inflow .......         0.000         0.000
  RDII Inflow ..............         0.000         0.000
  External Inflow ..........         0.000         0.000
  External Outflow .........         9.487         3.092
  Flooding Loss ............         0.118         0.039
  Evaporation Loss .........         0.000         0.000
  Exfiltration Loss ........         0.000         0.000
  Initial Stored Volume ....         0.041         0.013
  Final Stored Volume ......         2.682         0.874
  Continuity Error (%) .....         0.703
  
  
  *************************
  Highest Continuity Errors
  *************************
  Node MH-E12-090 (100.00%)
  Node MH-G07-091 (100.00%)
  Node MH-K07-045 (100.00%)
  Node CO-G02-002 (87.03%)
  Node TALLANT_ROAD_D (77.27%)
  
  
  ***************************
  Time-Step Critical Elements
  ***************************
  Link D13-42 (50.90%)
  Link E7-120 (30.12%)
  Link A4-15 (6.01%)
  Link A4-28 (5.56%)
  Link H9-29 (3.43%)
  
  
  ********************************
  Highest Flow Instability Indexes
  ********************************
  Link D4-33 (89)
  Link C11-3 (64)
  Link OUTFALL_1 (62)
  Link B5-69 (61)
  Link WWTP (55)
  
  
  *************************
  Routing Time Step Summary
  *************************
  Minimum Time Step           :     0.61 sec
  Average Time Step           :     5.25 sec
  Maximum Time Step           :    11.79 sec
  Percent in Steady State     :    -0.00
  Average Iterations per Step :     7.51
  Percent Not Converging      :    87.15
  
  
  ******************
  Node Depth Summary
  ******************
  
  ---------------------------------------------------------------------------------
                                 Average  Maximum  Maximum  Time of Max    Reported
                                   Depth    Depth      HGL   Occurrence   Max Depth
  Node                 Type         Feet     Feet     Feet  days hr:min        Feet
  ---------------------------------------------------------------------------------
  BRAEMAR_D            JUNCTION   130.83   211.92   217.32     0  07:17      191.86
  BRAEMAR_T            JUNCTION   119.53   199.77   217.77     0  07:17      177.81
  CO-A04-002           JUNCTION     0.05     0.06   159.69     0  08:38        0.06
  CO-A04-004           JUNCTION     0.02     0.02   178.02     0  08:53        0.02
  CO-A04-005           JUNCTION     0.02     0.02   188.02     0  08:31        0.02
  CO-A04-006           JUNCTION     0.01     0.02   196.02     0  09:11        0.02
  CO-A04-031           JUNCTION     0.01     0.01   190.01     0  08:32        0.01
  CO-A05-003           JUNCTION     0.15     0.26   194.13     0  08:55        0.26
  CO-A05-004           JUNCTION     0.04     0.05   185.05     0  08:17        0.05
  CO-A09-001           JUNCTION     0.01     0.01   584.01     0  09:49        0.01
  CO-A09-002           JUNCTION     0.00     0.00   588.00     0  00:00        0.00
  CO-A09-003           JUNCTION     0.01     0.02   596.02     0  09:07        0.02
  CO-B02-001           JUNCTION     0.00     0.00   358.00     0  00:00        0.00
  CO-B03-001           JUNCTION     0.02     0.03   258.03     0  09:00        0.03
  CO-B03-003           JUNCTION     0.01     0.02   286.02     0  08:32        0.02
  CO-B03-004           JUNCTION     0.02     0.03   260.03     0  09:00        0.03
  CO-B03-005           JUNCTION     0.01     0.01   278.01     0  08:32        0.01
  CO-B03-006           JUNCTION     0.00     0.00   326.00     0  00:00        0.00
  CO-B03-007           JUNCTION     0.02     0.02   302.02     0  08:32        0.02
  CO-B03-010           JUNCTION     0.02     0.03   271.03     0  08:04        0.03
  CO-B03-011           JUNCTION     0.01     0.02   269.02     0  08:29        0.02
  CO-B04-001           JUNCTION     0.06     0.08   185.08     0  08:56        0.08
  CO-B04-006           JUNCTION     0.02     0.02   230.02     0  08:46        0.02
  CO-B04-007           JUNCTION     0.01     0.02   233.02     0  08:47        0.02
  CO-B04-008           JUNCTION     0.01     0.01   254.01     0  09:54        0.01
  CO-B04-009           JUNCTION     0.00     0.00   246.00     0  00:00        0.00
  CO-B04-010           JUNCTION     0.01     0.01   244.01     0  08:05        0.01
  CO-B04-011           JUNCTION     0.02     0.02   261.02     0  08:27        0.02
  CO-B04-013           JUNCTION     0.01     0.02   183.33     0  08:57        0.02
  CO-B04-014           JUNCTION     0.01     0.01   201.01     0  08:55        0.01
  CO-B04-015           JUNCTION     0.00     0.00   200.00     0  09:00        0.00
  CO-B04-016           JUNCTION     0.01     0.01   190.01     0  08:44        0.01
  CO-B04-017           JUNCTION     0.02     0.02   188.02     0  08:32        0.02
  CO-B04-018           JUNCTION     0.01     0.02   189.39     0  08:42        0.02
  CO-B04-019           JUNCTION     7.68    24.84   215.84     0  04:07       17.44
  CO-B04-020           JUNCTION     0.03     0.04   184.81     0  08:18        0.04
  CO-B04-021           JUNCTION     0.03     0.05   205.05     0  09:34        0.05
  CO-B04-022           JUNCTION     0.16     0.24   212.24     0  09:00        0.24
  CO-B04-023           JUNCTION     0.03     0.04   220.04     0  08:50        0.04
  CO-B04-024           JUNCTION     0.02     0.02   226.02     0  08:57        0.02
  CO-B04-026           JUNCTION     0.01     0.01   224.01     0  08:49        0.01
  CO-B04-027           JUNCTION     0.01     0.02   222.02     0  08:17        0.02
  CO-B04-028           JUNCTION     0.00     0.00   230.00     0  00:00        0.00
  CO-B04-029           JUNCTION     0.02     0.03   233.03     0  09:00        0.03
  CO-B04-031           JUNCTION     0.00     0.00   248.00     0  00:00        0.00
  CO-B05-013           JUNCTION     0.02     0.02   179.06     0  08:20        0.02
  CO-B05-014           JUNCTION     0.00     0.00   180.00     0  00:00        0.00
  CO-B05-016           JUNCTION     0.38     0.58   178.89     0  08:55        0.58
  CO-B05-017           JUNCTION     0.01     0.02   183.02     0  09:26        0.02
  CO-B06-001           JUNCTION     0.02     0.03   168.03     0  09:05        0.03
  CO-B06-020           JUNCTION     0.02     0.03   148.03     0  10:00        0.03
  CO-B06-021           JUNCTION     0.02     0.02   148.27     0  10:00        0.02
  CO-B06-022           JUNCTION     0.02     0.03   150.03     0  09:46        0.03
  CO-B06-023           JUNCTION     0.01     0.01   152.01     0  09:47        0.01
  CO-B06-024           JUNCTION     0.01     0.02   158.02     0  09:24        0.02
  CO-B06-025           JUNCTION     0.02     0.03   154.03     0  09:31        0.03
  CO-B07-001           JUNCTION     0.01     0.02   134.23     0  09:48        0.02
  CO-B07-003           JUNCTION     0.02     0.03   136.52     0  10:00        0.03
  CO-B07-004           JUNCTION     0.02     0.03   137.03     0  09:34        0.03
  CO-B07-005           JUNCTION     0.01     0.02   172.02     0  09:41        0.02
  CO-B07-006           JUNCTION     0.02     0.02   132.02     0  09:51        0.02
  CO-B07-007           JUNCTION     0.01     0.02   136.02     0  09:36        0.02
  CO-B07-008           JUNCTION     0.03     0.03   135.03     0  09:47        0.03
  CO-B07-009           JUNCTION     0.02     0.02   142.02     0  09:49        0.02
  CO-B08-007           JUNCTION     0.01     0.02   122.02     0  09:26        0.02
  CO-B08-008           JUNCTION     0.02     0.03   108.03     0  10:00        0.03
  CO-B08-009           JUNCTION     0.02     0.02   112.02     0  09:56        0.02
  CO-B08-010           JUNCTION     0.01     0.01   134.01     0  09:52        0.01
  CO-B08-011           JUNCTION     0.02     0.02   110.02     0  09:46        0.02
  CO-B08-012           JUNCTION     0.01     0.02   190.02     0  09:17        0.02
  CO-B08-013           JUNCTION     0.01     0.01   176.01     0  09:21        0.01
  CO-B10-001           JUNCTION     0.00     0.00   484.00     0  09:55        0.00
  CO-B11-001           JUNCTION     0.02     0.02    87.02     0  09:07        0.02
  CO-B11-002           JUNCTION     0.01     0.01   162.01     0  09:56        0.01
  CO-B11-003           JUNCTION     0.01     0.01   186.01     0  09:32        0.01
  CO-C03-002           JUNCTION     0.00     0.00   362.00     0  00:00        0.00
  CO-C03-003           JUNCTION     0.01     0.02   425.02     0  08:27        0.02
  CO-C03-004           JUNCTION     0.01     0.01   462.01     0  08:46        0.01
  CO-C03-007           JUNCTION     0.01     0.01   318.01     0  08:54        0.01
  CO-C03-008           JUNCTION     0.01     0.01   340.10     0  08:57        0.01
  CO-C03-009           JUNCTION     0.01     0.01   322.01     0  08:58        0.01
  CO-C03-010           JUNCTION     0.01     0.01   332.01     0  08:30        0.01
  CO-C03-011           JUNCTION     0.00     0.00   311.51     0  00:00        0.00
  CO-C03-012           JUNCTION     0.02     0.03   280.03     0  08:54        0.03
  CO-C03-013           JUNCTION     0.02     0.03   296.57     0  09:00        0.03
  CO-C03-014           JUNCTION     0.01     0.02   362.02     0  08:19        0.02
  CO-C03-016           JUNCTION     0.01     0.02   435.02     0  08:11        0.02
  CO-C04-001           JUNCTION     0.02     0.02   262.02     0  09:37        0.02
  CO-C04-002           JUNCTION     0.01     0.02   228.02     0  08:42        0.02
  CO-C04-003           JUNCTION     0.03     0.04   225.24     0  09:00        0.04
  CO-C04-004           JUNCTION     0.02     0.03   221.53     0  08:37        0.03
  CO-C04-005           JUNCTION     0.01     0.01   226.41     0  09:00        0.01
  CO-C04-006           JUNCTION     0.01     0.01   253.59     0  09:00        0.01
  CO-C04-007           JUNCTION     0.01     0.02   242.37     0  08:51        0.02
  CO-C04-008           JUNCTION     0.01     0.01   269.79     0  08:56        0.01
  CO-C04-010           JUNCTION     0.01     0.02   284.02     0  09:27        0.02
  CO-C04-011           JUNCTION     0.00     0.00   298.50     0  00:00        0.00
  CO-C04-012           JUNCTION     0.01     0.01   269.37     0  08:45        0.01
  CO-C04-013           JUNCTION     0.02     0.03   239.03     0  08:45        0.03
  CO-C04-014           JUNCTION     0.02     0.03   247.51     0  08:57        0.03
  CO-C05-001           JUNCTION     0.02     0.03   202.03     0  09:05        0.03
  CO-C05-002           JUNCTION     0.01     0.01   249.01     0  09:37        0.01
  CO-C05-004           JUNCTION     0.00     0.00   181.92     0  00:00        0.00
  CO-C05-006           JUNCTION     0.06     0.08   200.02     0  08:45        0.08
  CO-C05-007           JUNCTION     0.05     0.07   212.27     0  09:00        0.07
  CO-C05-009           JUNCTION     0.05     0.06   209.87     0  09:00        0.06
  CO-C05-010           JUNCTION     0.00     0.00   212.00     0  00:00        0.00
  CO-C05-011           JUNCTION     0.05     0.07   205.07     0  08:56        0.07
  CO-C05-012           JUNCTION     0.01     0.02   210.02     0  08:51        0.02
  CO-C06-004           JUNCTION     0.01     0.01   168.01     0  09:52        0.01
  CO-C06-005           JUNCTION     0.01     0.02   158.02     0  09:31        0.02
  CO-C06-009           JUNCTION     0.01     0.01   155.01     0  10:00        0.01
  CO-C07-001           JUNCTION     0.02     0.03   156.03     0  09:58        0.03
  CO-C07-005           JUNCTION     0.01     0.01   200.01     0  09:36        0.01
  CO-C09-001           JUNCTION     0.01     0.01   199.65     0  09:28        0.01
  CO-C09-002           JUNCTION     0.01     0.02   236.02     0  09:59        0.02
  CO-C09-006           JUNCTION     0.01     0.02   303.02     0  10:00        0.02
  CO-C10-001           JUNCTION     0.03     0.05    33.84     0  10:00        0.05
  CO-C10-004           JUNCTION     0.02     0.02    52.02     0  10:00        0.02
  CO-C11-001           JUNCTION     0.01     0.01    50.01     0  10:00        0.01
  CO-C12-002           JUNCTION     0.01     0.01   160.01     0  09:21        0.01
  CO-C12-003           JUNCTION     0.01     0.02   166.02     0  09:35        0.02
  CO-C12-004           JUNCTION     0.02     0.03   165.03     0  09:02        0.03
  CO-C12-005           JUNCTION     0.02     0.02   167.52     0  09:26        0.02
  CO-C12-008           JUNCTION     0.03     0.04   151.44     0  10:00        0.04
  CO-D01-001           JUNCTION     0.01     0.01   765.01     0  08:33        0.01
  CO-D02-001           JUNCTION     0.01     0.01   595.01     0  08:18        0.01
  CO-D03-001           JUNCTION     0.01     0.02   416.02     0  09:36        0.02
  CO-D03-002           JUNCTION     0.01     0.01   402.01     0  09:36        0.01
  CO-D03-003           JUNCTION     0.01     0.01   375.01     0  09:12        0.01
  CO-D03-004           JUNCTION     0.01     0.01   385.01     0  09:49        0.01
  CO-D03-005           JUNCTION     0.00     0.01   385.01     0  09:59        0.01
  CO-D03-006           JUNCTION     0.00     0.01   326.92     0  09:49        0.01
  CO-D04-001           JUNCTION     0.02     0.03   296.03     0  09:55        0.03
  CO-D04-004           JUNCTION     0.01     0.02   302.02     0  09:35        0.02
  CO-D04-005           JUNCTION     0.03     0.03   290.03     0  10:00        0.03
  CO-D04-006           JUNCTION     0.00     0.00   308.00     0  00:00        0.00
  CO-D04-008           JUNCTION     0.86     1.14   256.45     0  11:57        1.10
  CO-D04-009           JUNCTION     0.01     0.01   280.01     0  10:00        0.01
  CO-D04-010           JUNCTION     0.02     0.03   252.03     0  10:00        0.03
  CO-D05-001           JUNCTION     0.01     0.02   200.02     0  09:33        0.02
  CO-D05-013           JUNCTION     0.01     0.02   241.02     0  09:36        0.02
  CO-D05-015           JUNCTION     0.04     0.05   216.21     0  09:53        0.05
  CO-D05-017           JUNCTION     0.02     0.02   249.02     0  09:22        0.02
  CO-D06-002           JUNCTION     0.01     0.01   180.81     0  09:59        0.01
  CO-D06-003           JUNCTION     0.02     0.02   201.02     0  09:25        0.02
  CO-D06-004           JUNCTION     0.01     0.01   207.01     0  09:49        0.01
  CO-D06-005           JUNCTION     0.03     0.03   253.03     0  10:00        0.03
  CO-D06-006           JUNCTION     0.01     0.01   254.01     0  09:50        0.01
  CO-D06-008           JUNCTION     0.01     0.01   259.01     0  09:15        0.01
  CO-D06-009           JUNCTION     0.01     0.02   259.02     0  09:25        0.02
  CO-D06-010           JUNCTION     0.01     0.01   247.01     0  09:59        0.01
  CO-D07-004           JUNCTION     0.01     0.01   197.99     0  10:00        0.01
  CO-D07-005           JUNCTION     0.01     0.01   189.01     0  09:53        0.01
  CO-D07-006           JUNCTION     0.02     0.02   189.02     0  09:07        0.02
  CO-D07-007           JUNCTION     0.01     0.02   207.02     0  09:22        0.02
  CO-D07-008           JUNCTION     0.01     0.01   209.01     0  09:21        0.01
  CO-D07-009           JUNCTION     0.01     0.01   209.01     0  10:00        0.01
  CO-D07-011           JUNCTION     0.01     0.02   185.02     0  09:33        0.02
  CO-D07-013           JUNCTION     0.02     0.02   130.02     0  10:00        0.02
  CO-D07-014           JUNCTION     0.07     0.10   144.35     0  10:00        0.10
  CO-D07-018           JUNCTION     0.06     0.09   130.09     0  09:03        0.09
  CO-D07-057           JUNCTION     0.02     0.02   151.02     0  10:00        0.02
  CO-D07-058           JUNCTION     0.01     0.01   136.01     0  09:50        0.01
  CO-D08-001           JUNCTION     0.01     0.02   160.02     0  09:21        0.02
  CO-D08-003           JUNCTION     0.01     0.02   110.69     0  09:23        0.02
  CO-D08-004           JUNCTION     0.01     0.02   110.35     0  11:00        0.02
  CO-D08-005           JUNCTION     0.03     0.04   114.79     0  10:49        0.04
  CO-D08-007           JUNCTION     0.02     0.02   172.02     0  09:58        0.02
  CO-D09-015           JUNCTION     0.01     0.01   176.01     0  10:00        0.01
  CO-D09-016           JUNCTION     0.01     0.01   324.01     0  09:13        0.01
  CO-D09-017           JUNCTION     0.01     0.01   298.01     0  09:33        0.01
  CO-D09-018           JUNCTION     0.01     0.01   186.01     0  09:43        0.01
  CO-D09-019           JUNCTION     0.00     0.01   190.01     0  09:39        0.01
  CO-D09-020           JUNCTION     0.01     0.01   280.01     0  09:09        0.01
  CO-D09-021           JUNCTION     0.01     0.01   296.01     0  09:21        0.01
  CO-D09-022           JUNCTION     0.01     0.01   200.01     0  09:09        0.01
  CO-D09-023           JUNCTION     0.01     0.02   101.29     0  09:48        0.02
  CO-D10-001           JUNCTION     0.01     0.01   406.01     0  10:00        0.01
  CO-D10-002           JUNCTION     0.01     0.02   394.02     0  10:00        0.02
  CO-D10-003           JUNCTION     0.01     0.01   394.01     0  09:47        0.01
  CO-D10-004           JUNCTION     0.01     0.02   366.02     0  09:49        0.02
  CO-D10-005           JUNCTION     0.02     0.02   224.02     0  09:21        0.02
  CO-D10-006           JUNCTION     0.01     0.01   282.01     0  09:21        0.01
  CO-D10-008           JUNCTION     0.01     0.02   392.02     0  09:46        0.02
  CO-D10-009           JUNCTION     0.01     0.01   398.01     0  09:39        0.01
  CO-D10-010           JUNCTION     0.01     0.01   404.01     0  09:08        0.01
  CO-D10-011           JUNCTION     0.01     0.01   144.01     0  10:00        0.01
  CO-D10-012           JUNCTION     0.01     0.01   174.01     0  09:23        0.01
  CO-D11-001           JUNCTION     0.01     0.01   318.01     0  09:44        0.01
  CO-D11-002           JUNCTION     0.00     0.01   340.01     0  09:04        0.01
  CO-D11-003           JUNCTION     0.01     0.01   360.01     0  09:57        0.01
  CO-D11-004           JUNCTION     0.03     0.04   343.89     0  10:00        0.04
  CO-D11-005           JUNCTION     0.01     0.02   386.02     0  10:00        0.02
  CO-D11-006           JUNCTION     0.01     0.01   400.01     0  09:34        0.01
  CO-D11-007           JUNCTION     0.01     0.01   354.01     0  09:12        0.01
  CO-D11-008           JUNCTION     0.01     0.02   343.02     0  10:00        0.02
  CO-D11-010           JUNCTION     0.00     0.00   342.00     0  09:51        0.00
  CO-D11-011           JUNCTION     0.01     0.02   284.02     0  09:04        0.02
  CO-D11-012           JUNCTION     0.01     0.01   349.20     0  09:57        0.01
  CO-D11-013           JUNCTION     0.01     0.02   328.02     0  09:58        0.02
  CO-D11-014           JUNCTION     0.01     0.02   274.02     0  10:00        0.02
  CO-D11-015           JUNCTION     0.01     0.01   356.01     0  09:16        0.01
  CO-D11-016           JUNCTION     0.01     0.02   343.29     0  09:38        0.02
  CO-D12-003           JUNCTION     0.01     0.02   161.02     0  09:57        0.02
  CO-D12-004           JUNCTION     0.03     0.04   159.04     0  09:30        0.04
  CO-D12-005           JUNCTION     0.01     0.02   156.02     0  09:19        0.02
  CO-D12-006           JUNCTION     0.01     0.01   156.01     0  09:34        0.01
  CO-D12-007           JUNCTION     0.02     0.02   184.02     0  09:18        0.02
  CO-D12-008           JUNCTION     0.02     0.03   201.14     0  09:10        0.03
  CO-D12-009           JUNCTION     0.02     0.02   190.66     0  10:00        0.02
  CO-D12-010           JUNCTION     0.02     0.02   196.02     0  09:47        0.02
  CO-D12-012           JUNCTION     0.02     0.03   170.03     0  09:22        0.03
  CO-D12-013           JUNCTION     0.01     0.02   169.02     0  10:00        0.02
  CO-D12-014           JUNCTION     0.01     0.02   184.02     0  10:00        0.02
  CO-D12-015           JUNCTION     0.02     0.03   184.73     0  09:59        0.03
  CO-D12-016           JUNCTION     0.01     0.01   184.65     0  10:00        0.01
  CO-D12-018           JUNCTION     0.01     0.01   166.01     0  09:48        0.01
  CO-D12-019           JUNCTION     0.02     0.03   167.03     0  09:46        0.03
  CO-D12-020           JUNCTION     0.02     0.03   161.03     0  09:39        0.03
  CO-D13-001           JUNCTION     1.17     2.50   121.00     0  07:50        2.50
  CO-E05-008           JUNCTION     0.01     0.01   299.01     0  11:45        0.01
  CO-E05-009           JUNCTION     0.00     0.00   218.00     0  00:00        0.00
  CO-E05-010           JUNCTION     0.02     0.02   315.02     0  10:59        0.02
  CO-E05-016           JUNCTION     0.02     0.02   261.02     0  08:25        0.02
  CO-E06-001           JUNCTION     0.02     0.03   203.03     0  08:31        0.03
  CO-E06-002           JUNCTION     0.04     0.06   210.06     0  12:00        0.06
  CO-E06-003           JUNCTION     0.06     0.07   235.56     0  12:00        0.07
  CO-E07-001           JUNCTION     0.02     0.03   121.03     0  09:48        0.03
  CO-E07-002           JUNCTION     0.02     0.03   110.44     0  10:55        0.03
  CO-E07-003           JUNCTION     0.14     0.18   123.49     0  10:00        0.18
  CO-E07-005           JUNCTION     0.08     0.10   115.94     0  09:00        0.10
  CO-E07-006           JUNCTION     0.08     0.09   140.07     0  12:00        0.09
  CO-E07-008           JUNCTION     0.04     0.05   149.05     0  09:14        0.05
  CO-E07-013           JUNCTION     0.26     0.35   104.87     0  10:00        0.35
  CO-E07-014           JUNCTION     0.01     0.02   145.02     0  09:35        0.02
  CO-E07-027           JUNCTION     0.25     0.33   110.31     0  10:00        0.33
  CO-E07-028           JUNCTION     0.06     0.08   134.08     0  08:56        0.08
  CO-E07-029           JUNCTION     0.03     0.03   131.03     0  09:08        0.03
  CO-E08-001           JUNCTION     0.04     0.05   113.35     0  09:44        0.05
  CO-E08-002           JUNCTION     0.01     0.01   113.01     0  09:39        0.01
  CO-E08-003           JUNCTION     2.08     2.24   100.34     0  11:00        2.24
  CO-E08-004           JUNCTION     0.02     0.03    99.03     0  11:00        0.03
  CO-E08-005           JUNCTION     0.04     0.05   103.05     0  11:00        0.05
  CO-E08-007           JUNCTION     0.03     0.04   111.04     0  10:28        0.04
  CO-E08-008           JUNCTION     0.03     0.03    93.47     0  10:36        0.03
  CO-E08-011           JUNCTION     0.10     0.14    87.79     0  11:00        0.14
  CO-E08-012           JUNCTION     0.02     0.03    95.03     0  10:27        0.03
  CO-E08-013           JUNCTION     0.02     0.03   110.03     0  09:13        0.03
  CO-E09-006           JUNCTION     0.04     0.05    98.31     0  09:07        0.05
  CO-E09-007           JUNCTION     0.03     0.03    94.03     0  09:04        0.03
  CO-E09-008           JUNCTION     0.05     0.06    90.06     0  10:00        0.06
  CO-E09-009           JUNCTION     0.03     0.04    86.93     0  09:33        0.04
  CO-E09-011           JUNCTION     0.01     0.01    85.01     0  09:41        0.01
  CO-E09-012           JUNCTION     0.03     0.04    77.13     0  10:39        0.04
  CO-E09-013           JUNCTION     0.01     0.02    80.68     0  10:00        0.02
  CO-E10-001           JUNCTION     0.01     0.02   356.02     0  09:46        0.02
  CO-E10-002           JUNCTION     0.01     0.01   240.01     0  09:06        0.01
  CO-E10-004           JUNCTION     0.07     0.10    68.10     0  10:01        0.10
  CO-E10-005           JUNCTION     0.01     0.02    99.02     0  10:25        0.02
  CO-E10-006           JUNCTION     0.01     0.02   201.23     0  09:47        0.02
  CO-E10-008           JUNCTION     0.01     0.01   364.01     0  09:18        0.01
  CO-E10-009           JUNCTION     0.01     0.01   360.01     0  09:24        0.01
  CO-E10-011           JUNCTION     0.02     0.03    96.03     0  10:00        0.03
  CO-E10-012           JUNCTION     0.01     0.01    94.01     0  09:34        0.01
  CO-E10-013           JUNCTION     0.01     0.01   250.01     0  09:06        0.01
  CO-E11-002           JUNCTION     0.01     0.01   318.01     0  09:20        0.01
  CO-E11-003           JUNCTION     0.01     0.01   368.01     0  09:29        0.01
  CO-E11-004           JUNCTION     0.01     0.01   364.01     0  09:22        0.01
  CO-E11-005           JUNCTION     0.00     0.01   302.01     0  09:37        0.01
  CO-E11-010           JUNCTION     0.01     0.02   352.02     0  09:11        0.02
  CO-E11-012           JUNCTION     0.01     0.02   390.02     0  09:02        0.02
  CO-E11-013           JUNCTION     0.01     0.01   408.01     0  09:47        0.01
  CO-E11-015           JUNCTION     0.01     0.02   387.02     0  09:45        0.02
  CO-E11-016           JUNCTION     0.01     0.02   352.02     0  09:37        0.02
  CO-E11-017           JUNCTION     0.01     0.01   350.01     0  10:00        0.01
  CO-E11-018           JUNCTION     0.01     0.01   384.01     0  09:34        0.01
  CO-E11-019           JUNCTION     0.01     0.01   380.01     0  09:35        0.01
  CO-E11-020           JUNCTION     0.01     0.01   376.01     0  09:33        0.01
  CO-E11-021           JUNCTION     0.01     0.02   390.12     0  09:49        0.02
  CO-E11-022           JUNCTION     0.01     0.01   370.01     0  09:05        0.01
  CO-E12-001           JUNCTION     0.02     0.03   148.03     0  09:41        0.03
  CO-E12-002           JUNCTION     0.01     0.01   176.01     0  09:22        0.01
  CO-E12-003           JUNCTION     0.01     0.01   250.01     0  09:56        0.01
  CO-E12-004           JUNCTION     0.00     0.01   252.01     0  09:48        0.01
  CO-E12-007           JUNCTION     0.02     0.02   199.49     0  10:00        0.02
  CO-E12-009           JUNCTION     0.01     0.01   222.01     0  09:58        0.01
  CO-E12-011           JUNCTION     0.01     0.01   343.76     0  09:47        0.01
  CO-E12-012           JUNCTION     0.01     0.01   176.01     0  09:22        0.01
  CO-E12-013           JUNCTION     0.02     0.03   181.12     0  10:00        0.03
  CO-E12-015           JUNCTION     0.01     0.01   268.01     0  09:53        0.01
  CO-E12-016           JUNCTION     0.02     0.03   214.92     0  09:34        0.03
  CO-E12-017           JUNCTION     0.01     0.02   222.02     0  09:50        0.02
  CO-E13-001           JUNCTION     0.01     0.02    90.02     0  09:58        0.02
  CO-F04-026           JUNCTION     0.01     0.01   625.01     0  09:38        0.01
  CO-F05-001           JUNCTION     0.00     0.01   493.01     0  10:00        0.01
  CO-F05-011           JUNCTION     0.01     0.01   461.01     0  09:47        0.01
  CO-F05-014           JUNCTION     0.02     0.02   363.02     0  09:24        0.02
  CO-F05-015           JUNCTION     0.02     0.03   333.03     0  09:09        0.03
  CO-F05-016           JUNCTION     0.02     0.03   355.03     0  10:00        0.03
  CO-F05-018           JUNCTION     0.01     0.01   410.01     0  09:50        0.01
  CO-F06-001           JUNCTION     0.08     0.11   173.99     0  09:00        0.11
  CO-F06-004           JUNCTION     0.06     0.08   322.08     0  09:00        0.08
  CO-F06-005           JUNCTION     0.02     0.03   224.37     0  10:00        0.03
  CO-F06-006           JUNCTION     0.03     0.04   217.69     0  11:00        0.04
  CO-F06-007           JUNCTION     0.06     0.08   263.62     0  10:00        0.08
  CO-F06-008           JUNCTION     0.01     0.01   327.01     0  09:08        0.01
  CO-F06-009           JUNCTION     0.01     0.02   255.02     0  09:23        0.02
  CO-F06-010           JUNCTION     0.02     0.02   279.02     0  09:12        0.02
  CO-F06-011           JUNCTION     0.02     0.03   214.42     0  09:00        0.03
  CO-F06-012           JUNCTION     0.03     0.04   191.04     0  07:07        0.04
  CO-F06-013           JUNCTION     0.01     0.02   216.82     0  08:54        0.02
  CO-F06-014           JUNCTION     0.01     0.02   197.02     0  08:44        0.02
  CO-F06-015           JUNCTION     0.02     0.03   202.58     0  08:59        0.03
  CO-F06-016           JUNCTION     0.10     0.13   216.21     0  10:00        0.13
  CO-F06-017           JUNCTION     0.06     0.08   259.64     0  09:24        0.08
  CO-F07-002           JUNCTION     0.02     0.03   121.03     0  11:54        0.03
  CO-F07-003           JUNCTION     0.04     0.05   149.59     0  08:56        0.05
  CO-F07-006           JUNCTION     0.02     0.02   173.94     0  10:00        0.02
  CO-F07-007           JUNCTION     0.05     0.06   106.06     0  11:23        0.06
  CO-F07-008           JUNCTION     0.03     0.04   124.04     0  11:55        0.04
  CO-F08-002           JUNCTION     0.01     0.01    88.59     0  12:00        0.01
  CO-F08-003           JUNCTION     0.02     0.03    90.70     0  11:58        0.03
  CO-F08-004           JUNCTION     0.05     0.07    96.07     0  12:00        0.07
  CO-F08-005           JUNCTION     0.12     0.16    96.16     0  12:00        0.16
  CO-F08-006           JUNCTION     0.02     0.03   103.03     0  11:32        0.03
  CO-F08-007           JUNCTION     0.09     0.12   113.12     0  12:00        0.12
  CO-F08-010           JUNCTION     0.01     0.02    83.46     0  12:00        0.02
  CO-F08-011           JUNCTION     0.02     0.03    90.12     0  12:00        0.03
  CO-F08-014           JUNCTION     0.00     0.00    84.11     0  00:00        0.00
  CO-F08-015           JUNCTION     0.10     0.13   119.13     0  12:00        0.13
  CO-F08-016           JUNCTION     0.03     0.04   117.04     0  11:57        0.04
  CO-F09-003           JUNCTION     0.02     0.03    40.03     0  09:57        0.03
  CO-F09-010           JUNCTION     0.02     0.02    65.02     0  10:00        0.02
  CO-F09-015           JUNCTION     0.05     0.06    69.23     0  10:00        0.06
  CO-F09-016           JUNCTION     0.01     0.01    73.01     0  10:00        0.01
  CO-F09-017           JUNCTION     0.02     0.02    69.02     0  09:20        0.02
  CO-F10-003           JUNCTION     0.01     0.02    58.41     0  10:59        0.02
  CO-F10-004           JUNCTION     0.04     0.05    46.40     0  10:28        0.05
  CO-F10-006           JUNCTION     0.00     0.00    57.31     0  00:00        0.00
  CO-F10-007           JUNCTION     0.02     0.02    55.81     0  11:00        0.02
  CO-F10-008           JUNCTION     0.07     0.09    56.14     0  10:55        0.09
  CO-F11-002           JUNCTION     0.01     0.01   356.01     0  09:50        0.01
  CO-F11-003           JUNCTION     0.01     0.01   357.01     0  09:50        0.01
  CO-F11-004           JUNCTION     0.01     0.02   105.61     0  10:42        0.02
  CO-F11-005           JUNCTION     0.01     0.01   116.01     0  10:28        0.01
  CO-F11-006           JUNCTION     0.00     0.00    38.61     0  00:00        0.00
  CO-F11-007           JUNCTION     0.04     0.05    39.69     0  10:27        0.05
  CO-F11-009           JUNCTION     0.01     0.01   342.01     0  10:58        0.01
  CO-F11-010           JUNCTION     0.01     0.01   285.01     0  10:34        0.01
  CO-F11-011           JUNCTION     0.02     0.02   180.02     0  10:39        0.02
  CO-F11-012           JUNCTION     0.01     0.01   186.01     0  10:50        0.01
  CO-F11-013           JUNCTION     0.01     0.02   430.52     0  10:06        0.02
  CO-F12-002           JUNCTION     0.01     0.01   105.89     0  10:52        0.01
  CO-F12-003           JUNCTION     0.01     0.02    94.16     0  10:55        0.02
  CO-F12-004           JUNCTION     0.04     0.06   150.06     0  10:49        0.06
  CO-F12-005           JUNCTION     0.03     0.04   160.04     0  10:28        0.04
  CO-F12-006           JUNCTION     0.01     0.01   148.56     0  09:47        0.01
  CO-F12-008           JUNCTION     0.01     0.01   150.38     0  09:38        0.01
  CO-F12-009           JUNCTION     0.01     0.01   222.01     0  10:36        0.01
  CO-F12-010           JUNCTION     0.01     0.01   216.01     0  10:52        0.01
  CO-F12-011           JUNCTION     0.02     0.03   331.03     0  10:48        0.03
  CO-F12-012           JUNCTION     0.01     0.02   340.02     0  10:26        0.02
  CO-G02-001           JUNCTION     7.23    75.07   890.07     0  11:23       74.65
  CO-G02-002           JUNCTION     4.42    65.57   890.57     0  11:23       64.64
  CO-G03-001           JUNCTION     0.01     0.01   884.01     0  06:05        0.01
  CO-G03-002           JUNCTION     0.00     0.00   890.00     0  11:23        0.00
  CO-G03-003           JUNCTION     0.01     0.02   831.02     0  09:47        0.02
  CO-G04-001           JUNCTION     0.01     0.01   705.01     0  09:22        0.01
  CO-G04-002           JUNCTION     0.00     0.01   695.01     0  09:42        0.01
  CO-G04-003           JUNCTION     0.01     0.01   635.01     0  09:38        0.01
  CO-G05-002           JUNCTION     0.01     0.02   551.02     0  08:59        0.02
  CO-G05-003           JUNCTION     0.00     0.00   531.00     0  00:00        0.00
  CO-G05-004           JUNCTION     0.02     0.02   466.02     0  08:19        0.02
  CO-G05-011           JUNCTION     0.01     0.01   525.19     0  08:02        0.01
  CO-G05-012           JUNCTION     0.00     0.00   474.00     0  00:00        0.00
  CO-G05-013           JUNCTION     0.01     0.02   519.02     0  08:29        0.02
  CO-G05-015           JUNCTION     0.01     0.02   765.02     0  09:47        0.02
  CO-G05-016           JUNCTION     0.01     0.02   548.02     0  08:45        0.02
  CO-G06-001           JUNCTION     0.01     0.01   373.01     0  08:20        0.01
  CO-G06-002           JUNCTION     0.01     0.01   376.02     0  07:26        0.01
  CO-G06-003           JUNCTION     0.02     0.03   122.03     0  07:42        0.03
  CO-G06-004           JUNCTION     0.01     0.01   141.17     0  07:10        0.01
  CO-G06-005           JUNCTION     0.01     0.02   279.02     0  07:12        0.02
  CO-G06-007           JUNCTION     0.01     0.01    79.01     0  10:21        0.01
  CO-G06-009           JUNCTION     0.01     0.02   160.02     0  08:57        0.02
  CO-G06-010           JUNCTION     0.02     0.03   155.03     0  07:21        0.03
  CO-G07-003           JUNCTION     0.03     0.04   101.26     0  10:00        0.04
  CO-G07-005           JUNCTION     0.03     0.05    85.94     0  08:00        0.05
  CO-G07-006           JUNCTION     0.04     0.06    83.40     0  08:00        0.06
  CO-G07-009           JUNCTION     0.02     0.03   100.64     0  08:00        0.03
  CO-G07-011           JUNCTION     0.02     0.03   111.09     0  08:00        0.03
  CO-G07-012           JUNCTION     0.02     0.03   107.91     0  07:31        0.03
  CO-G07-014           JUNCTION     0.01     0.02   127.88     0  07:43        0.02
  CO-G07-015           JUNCTION     0.02     0.04   126.04     0  07:46        0.04
  CO-G07-019           JUNCTION     0.01     0.02    95.82     0  11:00        0.02
  CO-G07-021           JUNCTION     0.04     0.05   107.05     0  10:00        0.05
  CO-G08-001           JUNCTION     0.16     0.27    28.46     0  08:00        0.27
  CO-G08-002           JUNCTION     0.01     0.01    45.01     0  10:15        0.01
  CO-G08-003           JUNCTION     0.01     0.02    46.02     0  10:08        0.02
  CO-G08-005           JUNCTION     0.03     0.05    32.88     0  07:37        0.05
  CO-G08-006           JUNCTION     0.01     0.02    78.43     0  07:55        0.02
  CO-G08-007           JUNCTION     0.03     0.05    54.56     0  08:00        0.05
  CO-G08-008           JUNCTION     0.02     0.04    46.91     0  07:52        0.04
  CO-G08-009           JUNCTION     0.05     0.07    49.07     0  10:59        0.07
  CO-G08-017           JUNCTION     0.02     0.03    71.03     0  11:00        0.03
  CO-G08-018           JUNCTION     0.03     0.04    66.81     0  11:00        0.04
  CO-G08-022           JUNCTION     0.01     0.01    93.01     0  11:00        0.01
  CO-G09-002           JUNCTION     0.15     0.21    19.28     0  11:00        0.21
  CO-G09-003           JUNCTION     0.04     0.05    20.17     0  11:14        0.05
  CO-G09-004           JUNCTION     0.05     0.07    16.98     0  10:59        0.07
  CO-G09-005           JUNCTION     0.04     0.06    19.19     0  10:36        0.06
  CO-G09-006           JUNCTION     0.05     0.06    19.19     0  11:00        0.06
  CO-G09-009           JUNCTION     0.04     0.05    45.05     0  12:00        0.05
  CO-G09-013           JUNCTION     0.06     0.08    27.08     0  10:03        0.08
  CO-G10-001           JUNCTION     0.03     0.03    35.50     0  10:00        0.03
  CO-G10-002           JUNCTION     0.03     0.03    22.04     0  10:44        0.03
  CO-G10-005           JUNCTION     0.04     0.05    25.35     0  09:44        0.05
  CO-G10-006           JUNCTION     0.02     0.03    30.28     0  10:00        0.03
  CO-G10-008           JUNCTION     0.07     0.10    19.90     0  10:00        0.10
  CO-G10-009           JUNCTION     0.42     0.65    17.30     0  10:15        0.65
  CO-G10-011           JUNCTION     0.02     0.03    26.15     0  11:43        0.03
  CO-G10-013           JUNCTION     0.04     0.05    17.65     0  09:14        0.05
  CO-G10-018           JUNCTION     0.01     0.02    30.20     0  09:34        0.02
  CO-G10-019           JUNCTION     0.02     0.03    21.03     0  09:36        0.03
  CO-G11-003           JUNCTION     0.00     0.00     7.86     0  00:00        0.00
  CO-G11-004           JUNCTION     0.00     0.00     7.39     0  00:00        0.00
  CO-G11-005           JUNCTION     0.04     0.05    12.73     0  10:49        0.05
  CO-G11-006           JUNCTION     0.06     0.08    93.10     0  11:00        0.08
  CO-G11-007           JUNCTION     0.03     0.04   102.04     0  10:52        0.04
  CO-G11-008           JUNCTION     0.02     0.02    37.09     0  11:00        0.02
  CO-G11-009           JUNCTION     0.58     0.90     4.35     0  10:27        0.90
  CO-G12-001           JUNCTION     0.00     0.00     8.50     0  00:00        0.00
  CO-G12-008           JUNCTION     0.00     0.01    41.88     0  11:00        0.01
  CO-H02-002           JUNCTION     0.00     0.00  1230.00     0  00:33        0.00
  CO-H02-020           JUNCTION     0.01     0.01   910.01     0  06:57        0.01
  CO-H03-001           JUNCTION     0.01     0.02   760.92     0  06:59        0.02
  CO-H03-002           JUNCTION     0.01     0.02   810.02     0  06:03        0.02
  CO-H03-003           JUNCTION     0.01     0.01   815.01     0  06:19        0.01
  CO-H03-005           JUNCTION     0.01     0.01   935.01     0  06:46        0.01
  CO-H03-008           JUNCTION     0.01     0.01   865.01     0  06:04        0.01
  CO-H04-005           JUNCTION     0.01     0.01   757.01     0  09:36        0.01
  CO-H05-001           JUNCTION     0.02     0.02   697.02     0  09:05        0.02
  CO-H05-002           JUNCTION     0.01     0.01   697.01     0  09:54        0.01
  CO-H05-004           JUNCTION     0.01     0.01   645.01     0  08:31        0.01
  CO-H05-005           JUNCTION     0.01     0.02   719.02     0  09:56        0.02
  CO-H05-007           JUNCTION     0.01     0.01   761.34     0  09:23        0.01
  CO-H05-008           JUNCTION     0.02     0.03   718.03     0  10:00        0.03
  CO-H05-009           JUNCTION     0.00     0.01   595.01     0  07:06        0.01
  CO-H06-001           JUNCTION     0.00     0.01   347.01     0  09:22        0.01
  CO-H06-002           JUNCTION     0.01     0.02   435.05     0  08:01        0.02
  CO-H06-003           JUNCTION     0.01     0.01   411.01     0  07:31        0.01
  CO-H06-007           JUNCTION     0.01     0.02   365.02     0  10:02        0.02
  CO-H06-008           JUNCTION     0.01     0.01   515.01     0  09:46        0.01
  CO-H06-009           JUNCTION     0.01     0.02   201.02     0  07:59        0.02
  CO-H06-010           JUNCTION     0.01     0.01   245.01     0  08:18        0.01
  CO-H07-002           JUNCTION     0.02     0.02    34.54     0  09:04        0.02
  CO-H07-003           JUNCTION     0.05     0.06    21.06     0  10:38        0.06
  CO-H07-004           JUNCTION     0.05     0.06     9.28     0  10:00        0.06
  CO-H07-005           JUNCTION     0.03     0.04    19.38     0  09:37        0.04
  CO-H07-006           JUNCTION     0.01     0.02    36.02     0  09:35        0.02
  CO-H07-007           JUNCTION     0.02     0.03    49.85     0  09:20        0.03
  CO-H07-008           JUNCTION     0.01     0.01    75.01     0  08:05        0.01
  CO-H08-001           JUNCTION     0.20     0.28     7.16     0  10:19        0.28
  CO-H08-002           JUNCTION     0.05     0.06    18.44     0  11:00        0.06
  CO-H08-003           JUNCTION     0.02     0.03    41.03     0  10:42        0.03
  CO-H08-004           JUNCTION     0.01     0.01    29.01     0  10:26        0.01
  CO-H08-006           JUNCTION     0.01     0.01    13.39     0  10:54        0.01
  CO-H08-007           JUNCTION     0.03     0.04    13.48     0  10:04        0.04
  CO-H08-009           JUNCTION     0.04     0.07     5.07     0  08:00        0.07
  CO-H08-010           JUNCTION     0.04     0.07     7.95     0  07:51        0.07
  CO-H08-012           JUNCTION     0.14     0.17     8.86     0  08:33        0.17
  CO-H08-013           JUNCTION     0.03     0.05     4.95     0  07:50        0.05
  CO-H08-014           JUNCTION     0.07     0.09    10.75     0  10:35        0.09
  CO-H09-002           JUNCTION     0.66     0.92    -2.78     0  10:00        0.92
  CO-H09-006           JUNCTION     0.03     0.06    10.67     0  07:21        0.06
  CO-H09-007           JUNCTION     0.01     0.01    13.89     0  07:31        0.01
  CO-H10-001           JUNCTION     0.02     0.02     9.97     0  09:44        0.02
  CO-H10-004           JUNCTION     0.02     0.02    18.07     0  09:57        0.02
  CO-H10-006           JUNCTION     0.02     0.02    12.65     0  09:32        0.02
  CO-H10-010           JUNCTION     0.05     0.06     6.06     0  09:11        0.06
  CO-J04-002           JUNCTION     0.01     0.01   401.50     0  07:24        0.01
  CO-J04-004           JUNCTION     0.00     0.00   285.00     0  00:00        0.00
  CO-J04-005           JUNCTION     0.01     0.01   253.65     0  07:26        0.01
  CO-J04-007           JUNCTION     0.00     0.00   371.90     0  03:40        0.00
  CO-J04-008           JUNCTION     0.01     0.01   362.42     0  01:19        0.01
  CO-J05-001           JUNCTION     0.11     0.15   213.15     0  08:00        0.15
  CO-J05-002           JUNCTION     0.01     0.01   210.01     0  08:00        0.01
  CO-J05-003           JUNCTION     0.01     0.01   179.01     0  08:00        0.01
  CO-J06-003           JUNCTION     0.01     0.01   157.01     0  09:23        0.01
  CO-J06-004           JUNCTION     0.00     0.00   285.00     0  09:35        0.00
  CO-J06-005           JUNCTION     0.03     0.04   316.04     0  07:47        0.04
  CO-J06-006           JUNCTION     0.01     0.02   449.99     0  07:54        0.02
  CO-J06-008           JUNCTION     0.01     0.01   269.01     0  07:42        0.01
  CO-J06-009           JUNCTION     0.01     0.01   145.01     0  07:25        0.01
  CO-J06-010           JUNCTION     0.01     0.02   125.02     0  07:35        0.02
  CO-J06-012           JUNCTION     0.00     0.00   111.00     0  00:00        0.00
  CO-J07-001           JUNCTION     0.03     0.04    77.04     0  07:42        0.04
  CO-J07-002           JUNCTION     0.01     0.02   107.54     0  10:42        0.02
  CO-J07-003           JUNCTION     0.01     0.02    63.02     0  07:40        0.02
  CO-J07-004           JUNCTION     0.01     0.02    75.02     0  07:26        0.02
  CO-J07-005           JUNCTION     0.02     0.02    85.02     0  07:11        0.02
  CO-J07-006           JUNCTION     0.03     0.03    96.53     0  07:45        0.03
  CO-J07-007           JUNCTION     0.01     0.02    78.02     0  08:00        0.02
  CO-J07-008           JUNCTION     0.02     0.03   295.03     0  07:58        0.03
  CO-J07-009           JUNCTION     0.01     0.01    87.79     0  09:25        0.01
  CO-J08-002           JUNCTION     0.02     0.03    54.53     0  09:19        0.03
  CO-J08-003           JUNCTION     0.01     0.01    39.45     0  08:57        0.01
  CO-J09-002           JUNCTION     0.01     0.01     7.49     0  09:58        0.01
  CO-J09-004           JUNCTION     0.00     0.01    15.01     0  09:28        0.01
  CO-J09-005           JUNCTION     0.02     0.03    18.03     0  09:17        0.03
  CO-J09-006           JUNCTION     0.02     0.03     7.49     0  09:42        0.03
  CO-J09-007           JUNCTION     0.01     0.01    15.01     0  09:21        0.01
  CO-K03-001           JUNCTION     0.01     0.02   596.02     0  07:05        0.02
  CO-K04-002           JUNCTION     0.01     0.01   450.01     0  07:40        0.01
  CO-K04-003           JUNCTION     0.01     0.02   546.02     0  07:56        0.02
  CO-K06-001           JUNCTION     0.02     0.02   311.02     0  08:00        0.02
  CO-K06-002           JUNCTION     0.02     0.02   389.02     0  07:50        0.02
  CO-K06-003           JUNCTION     0.01     0.01   503.01     0  07:27        0.01
  CO-K06-004           JUNCTION     0.01     0.01   395.01     0  07:22        0.01
  CO-K06-007           JUNCTION     0.00     0.01   382.01     0  08:00        0.01
  CO-K06-008           JUNCTION     0.01     0.01   345.01     0  07:30        0.01
  CO-K06-009           JUNCTION     0.05     0.06   355.06     0  08:00        0.06
  CO-K06-010           JUNCTION     0.00     0.01   345.01     0  10:00        0.01
  CO-K06-011           JUNCTION     0.01     0.01   316.01     0  07:38        0.01
  CO-K07-001           JUNCTION     0.01     0.01   293.01     0  07:48        0.01
  CO-K07-002           JUNCTION     0.02     0.02   295.02     0  09:08        0.02
  CO-K07-003           JUNCTION     0.01     0.02   274.34     0  09:59        0.02
  CO-K07-004           JUNCTION     0.00     0.00   301.00     0  00:00        0.00
  CO-K07-005           JUNCTION     0.01     0.01   249.01     0  09:46        0.01
  CO-K07-006           JUNCTION     0.01     0.01   295.01     0  09:41        0.01
  CO-K07-007           JUNCTION     0.00     0.00   237.00     0  00:00        0.00
  CO-K07-008           JUNCTION     0.01     0.01   247.01     0  09:04        0.01
  CO-K07-009           JUNCTION     0.01     0.01   250.01     0  09:50        0.01
  CO-K07-010           JUNCTION     0.02     0.02   286.02     0  07:04        0.02
  CO-K07-011           JUNCTION     0.03     0.04   270.04     0  08:00        0.04
  CO-K07-012           JUNCTION     0.00     0.00   309.00     0  00:00        0.00
  CO-K07-013           JUNCTION     0.01     0.02   277.02     0  07:40        0.02
  CO-K07-016           JUNCTION     0.01     0.01   293.01     0  07:49        0.01
  CO-K08-001           JUNCTION     0.01     0.02    54.26     0  09:23        0.02
  CO-K08-002           JUNCTION     0.01     0.01    48.47     0  09:57        0.01
  CO-K08-006           JUNCTION     0.08     0.10    50.10     0  09:04        0.10
  CO-K08-007           JUNCTION     0.02     0.03    87.03     0  09:11        0.03
  CO-K08-008           JUNCTION     0.07     0.08    40.01     0  10:00        0.08
  CO-K09-003           JUNCTION     0.03     0.04     9.04     0  10:00        0.04
  CO-L07-001           JUNCTION     0.01     0.01   216.01     0  09:36        0.01
  CO-L07-002           JUNCTION     0.00     0.01   254.01     0  09:59        0.01
  CO-L07-003           JUNCTION     0.01     0.01   277.01     0  10:00        0.01
  CO-L07-004           JUNCTION     0.01     0.01   264.01     0  09:34        0.01
  CO-L07-005           JUNCTION     0.01     0.01   279.01     0  09:17        0.01
  CO-L07-006           JUNCTION     0.01     0.01   342.01     0  09:58        0.01
  CO-L07-007           JUNCTION     0.01     0.01   277.01     0  09:12        0.01
  CO-M08-001           JUNCTION     0.02     0.03    52.03     0  11:31        0.03
  CO-M09-001           JUNCTION     0.01     0.02    50.02     0  11:43        0.02
  CO-M09-002           JUNCTION     0.03     0.04    66.04     0  11:43        0.04
  CO-M09-004           JUNCTION     0.03     0.03    35.03     0  11:53        0.03
  EL_CAMINO_S          JUNCTION     1.95     4.07   121.07     0  09:57        4.05
  EL_ESTERO_D          JUNCTION     6.27     8.53    -2.47     0  11:03        7.77
  LA_COLINA_D          JUNCTION    42.76    73.86   227.86     0  10:57       62.71
  LINDA_ROAD_D         JUNCTION    20.43    24.86   171.86     0  07:29       23.84
  LINDA_ROAD_T         JUNCTION     4.61     6.37   171.37     0  07:29        5.78
  MH-A03-001           JUNCTION     0.07     0.11   189.74     0  09:00        0.11
  MH-A03-002           JUNCTION     0.06     0.09   211.52     0  08:21        0.09
  MH-A03-003           JUNCTION     0.06     0.08   210.08     0  09:00        0.08
  MH-A03-004           JUNCTION     0.07     0.09   209.15     0  09:00        0.09
  MH-A03-005           JUNCTION     0.08     0.11   200.61     0  09:00        0.11
  MH-A03-007           JUNCTION     0.12     0.16   201.29     0  09:00        0.16
  MH-A03-008           JUNCTION     0.07     0.10   199.10     0  09:00        0.10
  MH-A03-009           JUNCTION     0.08     0.12   193.42     0  09:00        0.12
  MH-A03-011           JUNCTION     0.10     0.14   202.09     0  09:00        0.14
  MH-A03-012           JUNCTION     0.01     0.02   196.02     0  09:00        0.02
  MH-A03-013           JUNCTION     0.02     0.03   195.34     0  09:00        0.03
  MH-A03-014           JUNCTION     0.02     0.03   218.03     0  08:10        0.03
  MH-A03-015           JUNCTION     0.02     0.03   210.03     0  08:15        0.03
  MH-A03-016           JUNCTION     0.02     0.03   206.03     0  08:15        0.03
  MH-A03-017           JUNCTION     0.02     0.03   202.03     0  08:16        0.03
  MH-A03-018           JUNCTION     0.02     0.03   198.03     0  08:17        0.03
  MH-A03-019           JUNCTION     0.02     0.02   236.02     0  08:43        0.02
  MH-A04-001           JUNCTION     0.04     0.05   176.05     0  08:21        0.05
  MH-A04-005           JUNCTION     0.06     0.08   161.08     0  08:57        0.08
  MH-A04-007           JUNCTION     0.09     0.13   182.13     0  09:00        0.13
  MH-A04-021           JUNCTION     0.03     0.03   174.22     0  09:00        0.03
  MH-A04-022           JUNCTION     0.06     0.08   180.08     0  09:00        0.08
  MH-A04-023           JUNCTION     0.09     0.13   178.13     0  09:00        0.13
  MH-A04-024           JUNCTION     0.04     0.06   172.92     0  09:00        0.06
  MH-A04-025           JUNCTION     1.94     2.10   178.10     0  09:00        2.10
  MH-A04-026           JUNCTION     0.03     0.05   172.05     0  09:00        0.05
  MH-A04-027           JUNCTION     0.05     0.08   169.28     0  09:00        0.08
  MH-A04-028           JUNCTION     0.09     0.14   168.34     0  09:00        0.14
  MH-A04-029           JUNCTION     0.07     0.11   165.29     0  09:00        0.11
  MH-A04-030           JUNCTION     0.10     0.14   159.45     0  09:00        0.14
  MH-A04-031           JUNCTION     0.70     1.93   154.57     0  00:00        1.21
  MH-A04-032           JUNCTION     0.35     0.97   153.99     0  08:39        0.86
  MH-A04-033           JUNCTION     0.10     0.15   154.96     0  08:47        0.15
  MH-A04-034           JUNCTION     0.25     0.27   171.24     0  09:00        0.27
  MH-A04-035           JUNCTION     0.23     0.68   153.88     0  09:59        0.67
  MH-A04-036           JUNCTION     0.04     0.05   158.08     0  09:00        0.05
  MH-A04-037           JUNCTION     0.03     0.05   165.10     0  09:00        0.05
  MH-A04-039           JUNCTION     0.10     0.14   156.15     0  09:00        0.14
  MH-A04-040           JUNCTION     0.11     0.16   158.00     0  09:00        0.16
  MH-A04-041           JUNCTION     0.08     0.11   160.41     0  09:00        0.11
  MH-A04-042           JUNCTION     0.08     0.12   162.12     0  08:47        0.12
  MH-A04-043           JUNCTION     0.06     0.08   169.41     0  09:00        0.08
  MH-A04-044           JUNCTION     0.09     0.12   170.12     0  09:00        0.12
  MH-A04-045           JUNCTION     0.02     0.03   182.03     0  08:46        0.03
  MH-A04-046           JUNCTION     0.03     0.04   174.04     0  08:27        0.04
  MH-A04-047           JUNCTION     0.03     0.04   174.04     0  08:58        0.04
  MH-A04-048           JUNCTION     0.04     0.05   172.05     0  08:42        0.05
  MH-A04-049           JUNCTION     0.05     0.07   164.07     0  09:00        0.07
  MH-A04-050           JUNCTION     0.02     0.03   176.03     0  09:00        0.03
  MH-A04-051           JUNCTION     0.03     0.05   174.05     0  09:00        0.05
  MH-A04-052           JUNCTION     0.04     0.05   172.05     0  09:00        0.05
  MH-A04-053           JUNCTION     0.03     0.04   175.04     0  09:00        0.04
  MH-A04-054           JUNCTION     0.04     0.05   182.05     0  09:00        0.05
  MH-A04-055           JUNCTION     0.06     0.09   186.09     0  09:00        0.09
  MH-A04-056           JUNCTION     0.05     0.07   188.07     0  09:00        0.07
  MH-A04-057           JUNCTION     0.08     0.11   189.11     0  09:00        0.11
  MH-A04-058           JUNCTION     0.06     0.08   190.08     0  09:00        0.08
  MH-A04-059           JUNCTION     0.05     0.07   191.07     0  09:00        0.07
  MH-A04-060           JUNCTION     0.03     0.04   210.04     0  09:00        0.04
  MH-A04-063           JUNCTION     0.02     0.02   196.02     0  08:53        0.02
  MH-A04-064           JUNCTION     0.02     0.03   186.03     0  08:58        0.03
  MH-A04-065           JUNCTION     0.03     0.04   178.04     0  09:00        0.04
  MH-A04-067           JUNCTION     0.02     0.03   182.03     0  09:00        0.03
  MH-A04-068           JUNCTION     0.05     0.07   175.66     0  09:00        0.07
  MH-A04-069           JUNCTION     0.03     0.03   196.03     0  09:00        0.03
  MH-A04-070           JUNCTION     0.02     0.02   194.02     0  09:00        0.02
  MH-A04-071           JUNCTION     0.03     0.04   180.04     0  09:00        0.04
  MH-A04-072           JUNCTION     0.03     0.04   186.04     0  09:00        0.04
  MH-A04-073           JUNCTION     0.02     0.03   190.03     0  08:20        0.03
  MH-A04-074           JUNCTION     0.03     0.03   194.03     0  08:13        0.03
  MH-A04-094           JUNCTION     0.04     0.06   176.90     0  08:20        0.06
  MH-A05-002           JUNCTION     0.04     0.05   190.05     0  08:35        0.05
  MH-A05-003           JUNCTION     0.05     0.07   184.07     0  08:54        0.07
  MH-A05-004           JUNCTION     0.05     0.08   178.08     0  08:55        0.08
  MH-A05-005           JUNCTION     0.07     0.09   170.25     0  08:58        0.09
  MH-A05-006           JUNCTION     5.01     5.82   170.10     0  08:53        5.81
  MH-A08-001           JUNCTION     0.03     0.03   126.03     0  10:00        0.03
  MH-A09-001           JUNCTION     0.01     0.01   530.01     0  09:44        0.01
  MH-A09-002           JUNCTION     0.04     0.06   523.06     0  10:00        0.06
  MH-A09-003           JUNCTION     0.03     0.04   524.04     0  10:00        0.04
  MH-A09-004           JUNCTION     0.02     0.03   542.03     0  09:59        0.03
  MH-A09-005           JUNCTION     0.01     0.01   562.01     0  09:22        0.01
  MH-A09-006           JUNCTION     0.02     0.02   564.02     0  09:57        0.02
  MH-A09-007           JUNCTION     0.01     0.02   582.02     0  09:49        0.02
  MH-A09-008           JUNCTION     0.01     0.01   586.01     0  10:00        0.01
  MH-A09-009           JUNCTION     0.04     0.06   522.06     0  10:00        0.06
  MH-B02-001           JUNCTION     0.02     0.02   309.14     0  09:00        0.02
  MH-B02-002           JUNCTION     0.00     0.00   322.00     0  00:00        0.00
  MH-B02-003           JUNCTION     0.02     0.02   307.62     0  09:00        0.02
  MH-B03-001           JUNCTION     0.03     0.04   263.04     0  09:00        0.04
  MH-B03-003           JUNCTION     0.01     0.02   266.02     0  08:44        0.02
  MH-B03-004           JUNCTION     0.02     0.03   270.03     0  08:58        0.03
  MH-B03-005           JUNCTION     0.01     0.01   270.01     0  08:32        0.01
  MH-B03-007           JUNCTION     0.01     0.02   276.02     0  09:00        0.02
  MH-B03-008           JUNCTION     0.02     0.03   270.03     0  09:00        0.03
  MH-B03-009           JUNCTION     0.01     0.02   316.02     0  08:29        0.02
  MH-B03-010           JUNCTION     0.03     0.04   304.04     0  09:00        0.04
  MH-B03-011           JUNCTION     0.04     0.05   303.05     0  08:44        0.05
  MH-B03-012           JUNCTION     0.00     0.00   320.00     0  00:00        0.00
  MH-B03-013           JUNCTION     0.01     0.01   305.01     0  09:00        0.01
  MH-B03-014           JUNCTION     0.02     0.03   301.03     0  09:00        0.03
  MH-B03-015           JUNCTION     0.03     0.04   300.04     0  09:00        0.04
  MH-B03-016           JUNCTION     0.03     0.05   294.69     0  09:00        0.05
  MH-B03-017           JUNCTION     0.02     0.03   303.20     0  09:00        0.03
  MH-B03-018           JUNCTION     0.04     0.05   255.65     0  09:00        0.05
  MH-B03-019           JUNCTION     0.13     0.19   259.89     0  09:00        0.19
  MH-B03-020           JUNCTION     0.01     0.02   260.63     0  08:53        0.02
  MH-B03-021           JUNCTION     0.07     0.10   262.32     0  09:00        0.10
  MH-B03-023           JUNCTION     0.04     0.06   263.57     0  08:06        0.06
  MH-B03-024           JUNCTION     0.01     0.02   270.02     0  08:07        0.02
  MH-B03-025           JUNCTION     0.02     0.02   268.02     0  09:00        0.02
  MH-B03-026           JUNCTION     0.02     0.03   261.60     0  08:55        0.03
  MH-B03-027           JUNCTION     0.02     0.03   243.34     0  09:00        0.03
  MH-B03-028           JUNCTION     0.02     0.03   251.40     0  09:00        0.03
  MH-B03-029           JUNCTION     0.04     0.06   243.55     0  09:00        0.06
  MH-B03-030           JUNCTION     0.08     0.12   235.78     0  08:29        0.12
  MH-B03-031           JUNCTION     0.04     0.05   241.73     0  08:25        0.05
  MH-B03-032           JUNCTION     0.03     0.05   249.96     0  08:24        0.05
  MH-B03-033           JUNCTION     0.06     0.08   251.36     0  08:23        0.08
  MH-B03-034           JUNCTION     0.03     0.05   262.62     0  08:16        0.05
  MH-B03-035           JUNCTION     0.05     0.07   263.25     0  08:12        0.07
  MH-B03-036           JUNCTION     0.04     0.06   263.92     0  08:54        0.06
  MH-B03-037           JUNCTION     0.02     0.03   293.85     0  08:56        0.03
  MH-B03-038           JUNCTION     0.02     0.02   282.02     0  08:18        0.02
  MH-B03-039           JUNCTION     0.02     0.03   284.03     0  08:07        0.03
  MH-B03-040           JUNCTION     0.11     0.16   259.97     0  09:00        0.16
  MH-B04-001           JUNCTION     0.03     0.05   232.05     0  09:00        0.05
  MH-B04-002           JUNCTION     0.01     0.01   248.01     0  09:19        0.01
  MH-B04-003           JUNCTION     0.01     0.01   244.01     0  09:46        0.01
  MH-B04-004           JUNCTION     0.01     0.01   234.01     0  08:42        0.01
  MH-B04-005           JUNCTION     0.01     0.01   232.01     0  10:01        0.01
  MH-B04-006           JUNCTION     0.01     0.01   238.01     0  09:45        0.01
  MH-B04-007           JUNCTION     0.04     0.05   230.05     0  10:00        0.05
  MH-B04-009           JUNCTION     0.00     0.00   242.00     0  00:00        0.00
  MH-B04-010           JUNCTION     0.02     0.03   232.03     0  09:53        0.03
  MH-B04-011           JUNCTION     0.03     0.04   246.04     0  08:51        0.04
  MH-B04-012           JUNCTION     0.01     0.02   260.02     0  08:35        0.02
  MH-B04-013           JUNCTION     0.01     0.02   248.02     0  09:00        0.02
  MH-B04-014           JUNCTION     0.01     0.02   246.02     0  09:00        0.02
  MH-B04-015           JUNCTION     0.02     0.03   244.03     0  08:53        0.03
  MH-B04-017           JUNCTION     0.02     0.03   238.03     0  09:49        0.03
  MH-B04-018           JUNCTION     0.01     0.02   262.02     0  09:14        0.02
  MH-B04-019           JUNCTION     0.01     0.02   260.02     0  09:28        0.02
  MH-B04-020           JUNCTION     0.01     0.01   256.01     0  09:40        0.01
  MH-B04-021           JUNCTION     0.01     0.01   248.01     0  08:56        0.01
  MH-B04-022           JUNCTION     0.00     0.00   234.00     0  00:00        0.00
  MH-B04-024           JUNCTION     0.06     0.09   213.18     0  08:32        0.09
  MH-B04-025           JUNCTION     0.06     0.09   217.09     0  08:31        0.09
  MH-B04-026           JUNCTION     0.07     0.10   219.10     0  08:30        0.10
  MH-B04-027           JUNCTION     0.06     0.09   224.09     0  08:30        0.09
  MH-B04-028           JUNCTION     0.06     0.08   232.12     0  08:30        0.08
  MH-B04-029           JUNCTION     0.06     0.08   174.15     0  09:00        0.08
  MH-B04-030           JUNCTION     0.05     0.07   182.47     0  08:56        0.07
  MH-B04-032           JUNCTION     0.18     0.26   172.68     0  09:00        0.26
  MH-B04-033           JUNCTION     0.15     0.22   172.77     0  09:00        0.22
  MH-B04-034           JUNCTION     0.02     0.03   177.84     0  09:00        0.03
  MH-B04-035           JUNCTION     0.15     0.22   174.32     0  09:00        0.22
  MH-B04-036           JUNCTION     0.04     0.06   223.20     0  10:00        0.06
  MH-B04-037           JUNCTION     0.05     0.06   218.97     0  10:00        0.06
  MH-B04-038           JUNCTION     0.05     0.07   216.07     0  10:00        0.07
  MH-B04-039           JUNCTION     0.05     0.07   210.07     0  10:00        0.07
  MH-B04-040           JUNCTION     0.12     0.16   203.16     0  10:00        0.16
  MH-B04-041           JUNCTION     0.01     0.02   188.02     0  09:00        0.02
  MH-B04-042           JUNCTION     0.01     0.02   188.05     0  08:55        0.02
  MH-B04-043           JUNCTION     0.04     0.06   182.60     0  09:00        0.06
  MH-B04-044           JUNCTION     0.06     0.08   182.27     0  09:00        0.08
  MH-B04-045           JUNCTION     0.01     0.02   197.15     0  09:00        0.02
  MH-B04-046           JUNCTION     0.04     0.05   181.77     0  09:00        0.05
  MH-B04-047           JUNCTION     0.03     0.05   180.83     0  09:00        0.05
  MH-B04-048           JUNCTION     0.09     0.13   182.35     0  09:00        0.13
  MH-B04-049           JUNCTION     0.13     0.19   183.23     0  09:00        0.19
  MH-B04-050           JUNCTION     0.15     0.22   184.13     0  09:00        0.22
  MH-B04-051           JUNCTION     0.17     0.24   184.95     0  09:00        0.24
  MH-B04-052           JUNCTION     0.17     0.24   185.48     0  09:00        0.24
  MH-B04-053           JUNCTION     0.11     0.14   193.27     0  09:00        0.14
  MH-B04-054           JUNCTION     0.14     0.20   194.13     0  09:00        0.20
  MH-B04-055           JUNCTION     0.05     0.07   216.07     0  09:00        0.07
  MH-B04-056           JUNCTION     0.03     0.04   214.04     0  09:00        0.04
  MH-B04-057           JUNCTION     0.02     0.03   224.03     0  08:17        0.03
  MH-B04-058           JUNCTION     0.02     0.03   202.64     0  09:00        0.03
  MH-B04-059           JUNCTION     0.10     0.15   201.25     0  09:00        0.15
  MH-B04-060           JUNCTION     0.03     0.03   211.33     0  09:00        0.03
  MH-B04-061           JUNCTION     0.15     0.21   195.12     0  09:00        0.21
  MH-B04-062           JUNCTION     0.13     0.19   195.92     0  09:00        0.19
  MH-B04-063           JUNCTION     0.07     0.10   199.90     0  09:00        0.10
  MH-B04-064           JUNCTION     0.08     0.12   204.58     0  08:33        0.12
  MH-B04-065           JUNCTION     0.01     0.01   208.20     0  08:38        0.01
  MH-B04-066           JUNCTION     0.02     0.03   230.03     0  09:00        0.03
  MH-B04-067           JUNCTION     0.11     0.15   204.15     0  09:38        0.15
  MH-B04-068           JUNCTION     1.07     1.27   212.27     0  08:57        1.26
  MH-B04-069           JUNCTION     0.02     0.02   221.02     0  08:30        0.02
  MH-B04-070           JUNCTION     0.03     0.05   220.05     0  08:53        0.05
  MH-B04-071           JUNCTION     0.03     0.05   221.05     0  08:03        0.05
  MH-B04-072           JUNCTION     0.01     0.02   222.02     0  08:56        0.02
  MH-B04-077           JUNCTION     0.01     0.01   236.01     0  08:15        0.01
  MH-B05-001           JUNCTION    32.29    45.25   212.11     0  01:11       40.76
  MH-B05-002           JUNCTION     0.03     0.04   178.04     0  09:14        0.04
  MH-B05-012           JUNCTION     0.29     0.54   185.52     0  08:53        0.53
  MH-B05-021           JUNCTION     0.03     0.04   181.04     0  09:36        0.04
  MH-B05-022           JUNCTION     0.05     0.06   178.48     0  10:00        0.06
  MH-B05-023           JUNCTION     0.12     0.16   176.09     0  10:00        0.16
  MH-B05-024           JUNCTION     0.09     0.13   177.60     0  10:00        0.13
  MH-B05-025           JUNCTION     0.03     0.04   184.27     0  10:00        0.04
  MH-B05-026           JUNCTION     0.03     0.04   190.04     0  09:00        0.04
  MH-B05-029           JUNCTION     0.08     0.26   204.54     0  08:43        0.26
  MH-B05-030           JUNCTION     0.09     0.26   197.17     0  08:44        0.26
  MH-B05-031           JUNCTION     0.21     0.43   189.48     0  08:46        0.43
  MH-B05-032           JUNCTION     0.07     0.22   189.49     0  08:43        0.21
  MH-B05-033           JUNCTION     0.25     0.40   190.83     0  09:00        0.40
  MH-B05-034           JUNCTION     0.19     0.32   191.60     0  08:55        0.31
  MH-B05-035           JUNCTION     0.13     0.25   194.12     0  08:54        0.24
  MH-B05-036           JUNCTION     0.16     0.37   201.29     0  08:54        0.35
  MH-B05-037           JUNCTION     4.30     5.11   170.10     0  08:53        5.07
  MH-B05-038           JUNCTION     6.24     7.03   170.08     0  08:53        6.99
  MH-B05-039           JUNCTION     0.00     0.00   192.43     0  00:00        0.00
  MH-B05-040           JUNCTION     0.11     0.16   171.28     0  09:00        0.16
  MH-B05-041           JUNCTION     0.21     0.30   172.30     0  09:00        0.30
  MH-B05-042           JUNCTION     0.21     0.30   172.50     0  08:55        0.30
  MH-B05-043           JUNCTION     0.10     0.14   202.14     0  10:00        0.14
  MH-B05-044           JUNCTION     0.17     0.23   168.59     0  10:00        0.23
  MH-B05-045           JUNCTION     0.20     0.28   169.49     0  10:00        0.28
  MH-B05-046           JUNCTION     0.04     0.06   179.71     0  09:59        0.06
  MH-B05-047           JUNCTION     0.11     0.15   174.89     0  10:00        0.15
  MH-B05-048           JUNCTION     0.19     0.26   172.11     0  10:00        0.26
  MH-B05-049           JUNCTION     0.20     0.28   171.11     0  10:00        0.28
  MH-B05-050           JUNCTION     0.05     0.07   171.55     0  10:00        0.07
  MH-B05-051           JUNCTION     0.02     0.03   178.03     0  10:00        0.03
  MH-B05-052           JUNCTION     0.03     0.04   178.37     0  10:00        0.04
  MH-B05-053           JUNCTION     0.45     0.71   173.20     0  09:00        0.71
  MH-B05-054           JUNCTION     0.43     0.68   173.80     0  08:58        0.67
  MH-B05-055           JUNCTION     0.03     0.04   176.04     0  09:31        0.04
  MH-B05-057           JUNCTION     0.29     0.45   178.72     0  08:56        0.45
  MH-B05-058           JUNCTION     0.38     0.58   178.89     0  08:55        0.58
  MH-B05-059           JUNCTION     0.27     0.44   179.44     0  08:53        0.44
  MH-B05-060           JUNCTION     0.14     0.21   192.97     0  09:02        0.21
  MH-B05-061           JUNCTION     0.14     0.21   182.35     0  08:58        0.21
  MH-B05-062           JUNCTION     0.09     0.13   192.38     0  09:02        0.13
  MH-B05-063           JUNCTION     0.23     0.38   183.97     0  08:57        0.37
  MH-B05-064           JUNCTION     0.05     0.07   191.33     0  10:00        0.07
  MH-B05-065           JUNCTION     0.23     0.37   184.84     0  08:56        0.37
  MH-B05-066           JUNCTION     0.30     0.52   185.36     0  08:55        0.52
  MH-B05-067           JUNCTION     0.04     0.05   190.05     0  09:42        0.05
  MH-B05-068           JUNCTION     0.05     0.07   182.14     0  09:58        0.07
  MH-B05-069           JUNCTION     0.11     0.15   197.82     0  10:00        0.15
  MH-B05-070           JUNCTION     0.10     0.14   197.89     0  10:00        0.14
  MH-B05-071           JUNCTION     0.12     0.18   194.18     0  09:01        0.18
  MH-B05-072           JUNCTION     0.17     0.25   193.53     0  09:02        0.25
  MH-B05-073           JUNCTION     0.14     0.20   196.20     0  09:00        0.20
  MH-B05-074           JUNCTION     0.12     0.17   198.17     0  09:00        0.17
  MH-B05-076           JUNCTION     0.33     0.52   174.98     0  08:57        0.51
  MH-B06-004           JUNCTION     0.04     0.05   167.05     0  09:05        0.05
  MH-B06-005           JUNCTION     0.03     0.04   166.04     0  09:10        0.04
  MH-B06-007           JUNCTION     0.02     0.03   146.90     0  10:00        0.03
  MH-B06-008           JUNCTION     0.02     0.03   147.39     0  10:00        0.03
  MH-B06-009           JUNCTION     0.04     0.06   148.06     0  10:00        0.06
  MH-B06-010           JUNCTION     0.01     0.01   149.01     0  10:00        0.01
  MH-B06-011           JUNCTION     0.04     0.05   149.05     0  10:00        0.05
  MH-B06-012           JUNCTION     0.02     0.03   150.03     0  10:00        0.03
  MH-B06-013           JUNCTION     0.02     0.02   165.06     0  10:00        0.02
  MH-B06-014           JUNCTION     0.02     0.02   159.83     0  10:00        0.02
  MH-B06-015           JUNCTION     0.02     0.03   156.88     0  10:00        0.03
  MH-B06-016           JUNCTION     0.19     0.28   153.92     0  10:00        0.28
  MH-B06-017           JUNCTION     0.21     0.31   155.04     0  10:00        0.31
  MH-B06-018           JUNCTION     0.28     0.39   155.23     0  10:00        0.39
  MH-B06-019           JUNCTION     0.05     0.07   164.07     0  10:00        0.07
  MH-B06-020           JUNCTION     0.05     0.07   160.08     0  10:00        0.07
  MH-B06-021           JUNCTION     0.17     0.24   157.96     0  10:00        0.24
  MH-B06-023           JUNCTION     0.20     0.29   159.86     0  10:00        0.29
  MH-B06-024           JUNCTION     0.21     0.30   161.52     0  10:00        0.30
  MH-B06-025           JUNCTION     0.16     0.22   164.69     0  10:00        0.22
  MH-B06-026           JUNCTION     0.05     0.07   194.07     0  09:20        0.07
  MH-B06-027           JUNCTION     0.20     0.28   165.78     0  10:00        0.28
  MH-B06-028           JUNCTION     0.22     0.30   165.30     0  10:00        0.30
  MH-B06-029           JUNCTION     0.02     0.03   156.03     0  09:47        0.03
  MH-B06-030           JUNCTION     0.02     0.03   160.03     0  09:53        0.03
  MH-B06-031           JUNCTION     0.04     0.06   154.06     0  10:00        0.06
  MH-B06-032           JUNCTION     0.05     0.07   153.07     0  10:00        0.07
  MH-B06-033           JUNCTION     0.05     0.07   152.07     0  10:00        0.07
  MH-B06-034           JUNCTION     0.09     0.11   150.11     0  10:00        0.11
  MH-B06-035           JUNCTION     0.18     0.25   152.11     0  10:00        0.25
  MH-B07-001           JUNCTION     0.08     0.11   127.56     0  10:00        0.11
  MH-B07-002           JUNCTION     0.10     0.11   127.89     0  10:00        0.11
  MH-B07-003           JUNCTION     0.09     0.12   126.55     0  10:00        0.12
  MH-B07-004           JUNCTION     0.04     0.05   128.34     0  10:00        0.05
  MH-B07-005           JUNCTION     0.10     0.14   128.11     0  10:00        0.14
  MH-B07-006           JUNCTION     0.02     0.03   129.12     0  09:49        0.03
  MH-B07-007           JUNCTION     0.01     0.01   125.01     0  10:00        0.01
  MH-B07-008           JUNCTION     0.10     0.14   125.40     0  10:00        0.14
  MH-B07-009           JUNCTION     0.11     0.16   125.16     0  10:00        0.16
  MH-B07-010           JUNCTION     0.11     0.16   124.16     0  10:00        0.16
  MH-B07-015           JUNCTION     0.08     0.10   144.21     0  10:00        0.10
  MH-B07-016           JUNCTION     0.03     0.04   145.88     0  10:00        0.04
  MH-B07-017           JUNCTION     0.04     0.05   142.62     0  10:00        0.05
  MH-B07-018           JUNCTION     0.09     0.12   141.43     0  10:00        0.12
  MH-B07-019           JUNCTION     0.02     0.03   136.03     0  09:59        0.03
  MH-B07-020           JUNCTION     0.04     0.05   134.05     0  10:00        0.05
  MH-B07-021           JUNCTION     0.09     0.12   140.27     0  10:00        0.12
  MH-B07-022           JUNCTION     0.14     0.19   140.44     0  10:00        0.19
  MH-B07-023           JUNCTION     0.06     0.07   141.07     0  10:00        0.07
  MH-B07-024           JUNCTION     0.02     0.03   136.00     0  10:00        0.03
  MH-B07-025           JUNCTION     0.05     0.06   134.92     0  10:00        0.06
  MH-B07-026           JUNCTION     0.05     0.06   134.10     0  10:00        0.06
  MH-B07-027           JUNCTION     0.05     0.07   135.42     0  10:00        0.07
  MH-B07-028           JUNCTION     0.03     0.04   142.04     0  10:00        0.04
  MH-B07-029           JUNCTION     0.04     0.06   145.12     0  10:00        0.06
  MH-B07-030           JUNCTION     0.04     0.06   146.58     0  10:00        0.06
  MH-B07-031           JUNCTION     0.34     0.53   148.57     0  09:10        0.53
  MH-B07-032           JUNCTION     0.24     0.34   149.78     0  10:00        0.34
  MH-B07-033           JUNCTION     0.01     0.01   160.01     0  09:50        0.01
  MH-B07-034           JUNCTION     0.03     0.04   140.04     0  10:00        0.04
  MH-B07-035           JUNCTION     0.02     0.02   142.02     0  09:57        0.02
  MH-B07-036           JUNCTION     0.02     0.03   138.03     0  10:00        0.03
  MH-B07-037           JUNCTION     0.05     0.07   136.07     0  10:00        0.07
  MH-B07-038           JUNCTION     0.01     0.01   140.01     0  10:00        0.01
  MH-B07-039           JUNCTION     0.04     0.05   136.05     0  10:00        0.05
  MH-B07-040           JUNCTION     0.06     0.08   135.08     0  10:00        0.08
  MH-B07-041           JUNCTION     0.04     0.06   136.06     0  10:00        0.06
  MH-B07-042           JUNCTION     0.06     0.08   134.08     0  10:00        0.08
  MH-B07-043           JUNCTION     0.08     0.11   133.11     0  10:00        0.11
  MH-B07-044           JUNCTION     0.03     0.03   134.03     0  09:45        0.03
  MH-B07-045           JUNCTION     0.12     0.16   133.16     0  10:00        0.16
  MH-B07-046           JUNCTION     0.19     0.24   132.24     0  10:00        0.24
  MH-B07-047           JUNCTION     0.02     0.03   168.03     0  10:00        0.03
  MH-B07-048           JUNCTION     0.01     0.02   160.02     0  09:16        0.02
  MH-B07-049           JUNCTION     0.02     0.03   133.33     0  09:17        0.03
  MH-B07-050           JUNCTION     0.02     0.02   166.02     0  09:57        0.02
  MH-B07-051           JUNCTION     0.02     0.03   164.03     0  09:10        0.03
  MH-B07-052           JUNCTION     0.01     0.02   166.02     0  09:54        0.02
  MH-B07-053           JUNCTION     0.02     0.02   158.02     0  10:00        0.02
  MH-B07-054           JUNCTION     0.02     0.03   138.03     0  10:00        0.03
  MH-B07-055           JUNCTION     0.03     0.04   131.44     0  09:17        0.04
  MH-B07-056           JUNCTION     0.02     0.03   129.73     0  09:20        0.03
  MH-B07-057           JUNCTION     0.10     0.13   126.96     0  10:00        0.13
  MH-B07-058           JUNCTION     0.13     0.19   122.53     0  10:00        0.19
  MH-B07-059           JUNCTION     0.11     0.16   126.85     0  10:00        0.16
  MH-B07-060           JUNCTION     0.11     0.15   128.66     0  10:00        0.15
[...]
  _IMP-CASTILLO           1.00   0.00  0.00  0.00  0.02  0.98  0.00  0.00  0.90  0.00
  _IMP-D12-12             1.00   0.00  0.00  0.00  1.00  0.00  0.00  0.00  0.36  0.00
  _IMP-D13-10             1.00   0.01  0.00  0.00  0.97  0.00  0.00  0.03  0.92  0.00
  _IMP-D13-57             1.50   0.00  0.00  0.00  1.00  0.00  0.00  0.00  0.00  0.00
  _IMP-D4-131             1.00   0.00  0.00  0.00  0.00  0.00  0.00  1.00  0.00  0.00
  _IMP-D4-134             1.00   0.00  0.00  0.00  0.46  0.01  0.00  0.53  0.00  0.00
  _IMP-D5-15              1.00   0.00  0.00  0.00  0.00  0.00  0.00  1.00  0.00  0.00
  _IMP-D5-18              1.00   0.00  0.00  0.00  0.00  0.00  0.00  1.00  0.00  0.00
  _IMP-D5-92              1.00   0.00  0.00  0.00  1.00  0.00  0.00  0.00  0.99  0.00
  _IMP-D5-93              1.00   0.00  0.00  0.00  1.00  0.00  0.00  0.00  1.00  0.00
  _IMP-D5-97              1.00   0.00  0.00  0.00  0.00  0.00  0.00  1.00  0.00  0.00
  _IMP-D6-42              1.00   0.00  0.00  0.00  0.00  0.00  0.00  1.00  0.00  0.00
  _IMP-D6-43              1.00   0.00  0.00  0.00  0.99  0.01  0.00  0.00  0.00  0.00
  _IMP-D8-171             1.00   0.00  0.00  0.00  1.00  0.00  0.00  0.00  0.14  0.00
  _IMP-D8-81              1.00   0.00  0.00  0.00  1.00  0.00  0.00  0.00  0.06  0.00
  _IMP-D8-82              1.00   0.00  0.00  0.00  1.00  0.00  0.00  0.00  0.51  0.00
  _IMP-D8-83              1.00   0.00  0.00  0.00  0.80  0.00  0.00  0.20  0.47  0.00
  _IMP-D8-84              1.00   0.00  0.00  0.00  0.00  0.00  0.00  1.00  0.00  0.00
  _IMP-D8-84B             1.00   0.00  0.00  0.00  0.00  0.00  0.00  1.00  0.00  0.00
  _IMP-D8-87              1.00   0.00  0.00  0.00  0.55  0.00  0.00  0.45  0.38  0.00
  _IMP-E5-76              1.00   0.00  0.00  0.00  0.37  0.63  0.00  0.00  0.52  0.00
  _IMP-E5-83              1.00   0.00  0.00  0.00  0.00  0.00  0.00  1.00  0.00  0.00
  _IMP-E7-137             1.00   0.00  0.00  0.00  0.52  0.00  0.00  0.48  0.33  0.00
  _IMP-E7-138             1.14   0.00  0.00  0.00  0.00  0.00  0.00  1.00  0.00  0.00
  _IMP-E7-139             1.00   0.00  0.00  0.00  0.00  0.00  0.00  1.00  0.00  0.00
  _IMP-E7-148             1.00   0.00  0.00  0.00  1.00  0.00  0.00  0.00  0.01  0.00
  _IMP-E7-149             1.00   0.00  0.00  0.00  1.00  0.00  0.00  0.00  0.95  0.00
  _IMP-E8-90              1.00   0.00  0.00  0.00  0.00  0.00  0.00  1.00  0.00  0.00
  _IMP-E8-96              1.00   0.01  0.99  0.00  0.00  0.00  0.00  0.00  0.00  0.00
  _IMP-E8-97              1.00   1.00  0.00  0.00  0.00  0.00  0.00  0.00  0.00  0.00
  _IMP-E9-32              1.00   0.00  0.00  0.00  1.00  0.00  0.00  0.00  0.92  0.00
  _IMP-E9-34              1.00   0.00  0.00  0.00  1.00  0.00  0.00  0.00  1.00  0.00
  _IMP-F10-53             1.00   0.00  0.00  0.00  1.00  0.00  0.00  0.00  0.00  0.00
  _IMP-F10-63             1.00   0.00  0.00  0.00  0.00  0.00  0.00  1.00  0.00  0.00
  _IMP-F10-66             1.00   0.00  0.00  0.00  0.98  0.00  0.00  0.02  0.72  0.00
  _IMP-F5-24              1.00   0.00  0.00  0.00  0.00  0.00  0.00  1.00  0.00  0.00
  _IMP-F5-52              1.00   0.00  0.00  0.00  1.00  0.00  0.00  0.00  0.01  0.00
  _IMP-F6-187             1.00   0.00  0.00  0.00  0.00  0.00  0.00  1.00  0.00  0.00
  _IMP-F9-25              1.00   0.00  0.00  0.00  0.47  0.00  0.00  0.53  0.00  0.00
  _IMP-G10-39             1.00   0.00  0.04  0.00  0.90  0.05  0.00  0.00  0.87  0.00
  _IMP-G10-41             1.00   0.00  0.00  0.00  1.00  0.00  0.00  0.00  0.09  0.00
  _IMP-G10-44             1.00   0.00  0.00  0.00  1.00  0.00  0.00  0.00  0.01  0.00
  _IMP-G10-45             1.00   0.00  0.00  0.00  1.00  0.00  0.00  0.00  0.00  0.00
  _IMP-G10-46             1.00   0.00  0.00  0.00  1.00  0.00  0.00  0.00  1.00  0.00
  _IMP-G10-50             1.00   0.00  0.00  0.00  0.98  0.02  0.00  0.00  0.95  0.00
  _IMP-G10-68             1.00   0.00  0.00  0.00  1.00  0.00  0.00  0.00  0.00  0.00
  _IMP-G10-69             1.00   0.00  0.00  0.00  1.00  0.00  0.00  0.00  1.00  0.00
  _IMP-G12-17             1.00   0.00  0.00  0.00  1.00  0.00  0.00  0.00  0.11  0.00
  _IMP-G12-24             1.00   0.01  0.00  0.00  0.57  0.00  0.00  0.41  0.00  0.00
  _IMP-G12-3              1.00   0.01  0.00  0.00  0.99  0.00  0.00  0.00  0.89  0.00
  _IMP-G7-22              1.00   0.00  0.00  0.00  0.00  0.00  0.00  1.00  0.00  0.00
  _IMP-G8-117             1.00   0.00  0.00  0.00  0.00  0.00  0.00  1.00  0.00  0.00
  _IMP-G8-74              1.66   0.00  0.00  0.00  0.00  0.00  0.00  1.00  0.00  0.00
  _IMP-G9-20              1.00   0.00  0.00  0.00  1.00  0.00  0.00  0.00  0.97  0.00
  _IMP-GUTIERREZ          1.00   0.00  0.00  0.00  1.00  0.00  0.00  0.00  0.94  0.00
  _IMP-H10-54             1.00   0.00  0.00  0.00  1.00  0.00  0.00  0.00  0.63  0.00
  _IMP-H10-55             1.00   0.00  0.00  0.00  1.00  0.00  0.00  0.00  0.00  0.00
  _IMP-H7-101             1.00   0.00  0.00  0.00  0.00  0.00  0.00  1.00  0.00  0.00
  _IMP-H7-31              1.00   0.00  0.00  0.00  0.00  0.00  0.00  1.00  0.00  0.00
  _IMP-H7-42              1.00   0.00  0.00  0.00  1.00  0.00  0.00  0.00  0.98  0.00
  _IMP-H7-45              1.00   0.00  0.00  0.00  1.00  0.00  0.00  0.00  0.96  0.00
  _IMP-H8-45              1.00   0.00  0.00  0.00  1.00  0.00  0.00  0.00  0.97  0.00
  _IMP-H8-68              1.00   0.00  0.00  0.00  1.00  0.00  0.00  0.00  0.99  0.00
  _IMP-H9-14              1.00   0.00  0.00  0.00  1.00  0.00  0.00  0.00  0.00  0.00
  _IMP-H9-16              1.00   0.00  0.00  0.00  0.94  0.00  0.00  0.06  0.90  0.00
  _IMP-H9-20              1.00   0.00  0.00  0.00  1.00  0.00  0.00  0.00  0.97  0.00
  _IMP-H9-21              1.00   0.00  0.00  0.00  1.00  0.00  0.00  0.00  0.91  0.00
  _IMP-H9-42              1.00   0.00  0.00  0.00  1.00  0.00  0.00  0.00  0.05  0.00
  _IMP-H9-43              1.00   0.00  0.00  0.00  1.00  0.00  0.00  0.00  0.00  0.00
  _IMP-H9-44              1.00   0.00  0.00  0.00  1.00  0.00  0.00  0.00  0.00  0.00
  _IMP-H9-75              1.00   0.00  0.00  0.00  1.00  0.00  0.00  0.00  0.02  0.00
  _IMP-H9-79              1.00   0.01  0.00  0.00  0.99  0.00  0.00  0.00  0.72  0.00
  _IMP-H9-88              1.00   0.00  0.00  0.00  1.00  0.00  0.00  0.00  0.02  0.00
  _IMP-HITCHCOCK          1.00   0.00  0.00  0.00  0.00  0.00  0.00  1.00  0.00  0.00
  _IMP-J6-59              1.00   0.00  0.00  0.00  0.63  0.00  0.00  0.36  0.00  0.00
  _IMP-J7-100             1.00   0.00  0.00  0.00  0.00  0.00  0.00  1.00  0.00  0.00
  _IMP-J8-24              1.00   0.00  0.00  0.00  1.00  0.00  0.00  0.00  0.96  0.00
  _IMP-J9-13              1.00   0.00  0.01  0.00  0.99  0.00  0.00  0.00  0.03  0.00
  _IMP-J9-14              1.00   0.00  0.00  0.00  1.00  0.00  0.00  0.00  0.95  0.00
  _IMP-J9-15              1.00   0.00  0.00  0.00  1.00  0.00  0.00  0.00  0.00  0.00
  _IMP-J9-40              1.28   0.00  0.00  0.00  1.00  0.00  0.00  0.00  0.49  0.00
  _IMP-K7-1               1.00   0.00  0.00  0.00  0.01  0.99  0.00  0.00  0.00  0.00
  _IMP-K7-2               1.00   0.00  0.00  0.00  0.01  0.99  0.00  0.00  1.00  0.00
  _IMP-K7-23              1.00   0.00  0.00  0.00  0.01  0.99  0.00  0.00  0.97  0.00
  _IMP-K7-31              1.00   0.00  0.00  0.00  0.01  0.99  0.00  0.00  0.02  0.00
  _IMP-K7-58              1.00   0.00  0.00  0.00  0.01  0.99  0.00  0.00  0.02  0.00
  _IMP-K7-59              1.00   0.00  0.00  0.00  0.00  0.00  0.00  1.00  0.00  0.00
  _IMP-K8-106             1.00   0.00  0.00  0.00  0.00  0.00  0.00  1.00  0.00  0.00
  _IMP-K8-117             1.00   0.00  0.01  0.00  0.00  0.99  0.00  0.00  0.98  0.00
  _IMP-K8-123             1.34   0.00  0.00  0.00  1.00  0.00  0.00  0.00  1.00  0.00
  _IMP-K8-76              1.00   0.00  0.03  0.00  0.97  0.00  0.00  0.00  0.95  0.00
  _IMP-K9-11              1.00   0.00  0.00  0.00  0.00  0.99  0.00  0.00  0.00  0.00
  _IMP-K9-17              1.00   0.00  0.00  0.00  0.99  0.00  0.00  0.01  0.52  0.00
  _IMP-K9-18              1.00   0.00  0.00  0.00  1.00  0.00  0.00  0.00  0.02  0.00
  _IMP-K9-28              1.00   0.01  0.00  0.00  0.99  0.00  0.00  0.00  0.00  0.00
  _IMP-K9-29              1.00   0.00  0.00  0.00  1.00  0.00  0.00  0.00  0.03  0.00
  _IMP-L8-21              1.00   0.00  0.00  0.00  0.01  0.99  0.00  0.00  0.00  0.00
  _IMP-L8-25              1.00   0.00  0.00  0.00  1.00  0.00  0.00  0.00  0.64  0.00
  _IMP-L8-32              1.00   0.00  0.02  0.00  0.98  0.00  0.00  0.00  0.95  0.00
  _IMP-L9-12              1.00   0.02  0.00  0.00  0.98  0.00  0.00  0.00  0.47  0.00
  _IMP-MILPAS             1.00   0.00  0.00  0.00  0.99  0.01  0.00  0.00  0.97  0.00
  _IMP-NOPAL              1.00   0.00  0.00  0.00  1.00  0.00  0.00  0.00  0.00  0.00
  _IMP-OLIVE_COTA         1.00   0.00  0.00  0.00  1.00  0.00  0.00  0.00  0.96  0.00
  _IMP-ORTEGA             1.00   0.01  0.00  0.00  0.60  0.00  0.00  0.40  0.00  0.00
  _IMP-QUARANTINA         1.00   0.00  0.01  0.00  0.99  0.00  0.00  0.00  0.97  0.00
  _IMP-STATE              1.00   0.00  0.00  0.00  0.99  0.01  0.00  0.00  0.95  0.00
  
  
  *************************
  Conduit Surcharge Summary
  *************************
  
  ----------------------------------------------------------------------------
                                                           Hours        Hours 
                         --------- Hours Full --------   Above Full   Capacity
  Conduit                Both Ends  Upstream  Dnstream   Normal Flow   Limited
  ----------------------------------------------------------------------------
  A4-14                       7.86      7.86     10.45      0.01         0.01
  A4-15                       6.67      6.67     12.00      0.01         0.01
  A4-24                       0.02      0.02      4.92      0.01         0.01
  A4-27                       0.01      0.01      0.57      0.01         0.01
  A4-28                       1.11      1.11      4.92      0.01         0.01
  A4-29                       0.01      0.01      1.11      0.01         0.01
  A4-63                       0.01      0.01     11.12      0.01         0.01
  A5-2                        0.01      0.01      0.01      1.18         0.01
  A5-3                       11.96     11.96     11.99      0.01         0.01
  A5-4                        0.01      0.01     11.95      0.01         0.01
  B4-4                        0.01      0.01      7.86      0.01         0.01
  B4-97                      10.40     10.40     11.07      0.01         0.01
  B4-98                       0.01      0.01     10.40      0.01         0.01
  B5-17                       0.01      0.01     10.81      0.01         0.01
  B5-61                       0.01      0.01      0.01      1.19         0.01
  B5-69                      11.99     11.99     12.00      0.02         0.19
  B5-79                       0.01      0.01     11.51      0.01         0.01
  B5-80                      11.51     11.51     11.99      0.01         0.01
  BRAEMAR_INLET               4.34      4.34     12.00      0.01         0.01
  C11-1                       0.01      0.01      7.24      0.01         0.01
  C11-28                      0.01      0.01      1.57      0.01         0.01
  C11-3                       9.34      9.34      9.91      0.01         0.01
  C11-4                       7.93      7.93      8.66      0.01         0.01
  C11-41                      9.90      9.91      9.91      0.14         0.04
  C11-43                      9.91      9.91      9.92      0.01         0.01
  C11-5                       8.66      8.66      9.32      0.01         0.01
  C12-45                      0.01      0.01      2.19      0.01         0.01
  C12-6                       9.99      9.99     10.06      0.01         0.01
  C12-7                       0.01      0.01      9.99      0.01         0.01
  C5-23                       0.01      0.01     10.98      0.01         0.01
  C5-47                       0.01      0.01     11.11      0.01         0.01
  C5-85                       0.01      0.01     11.47      0.01         0.01
  D12-131                     0.01      0.01      1.64      0.01         0.01
  D13-14                      0.01      0.01     10.68      0.01         0.01
  D13-16                      4.71      4.71      5.05      0.01         0.01
  D13-17                      4.59      4.59      4.71      2.81         2.72
  D13-18                      3.36      3.36      4.48      0.01         0.01
  D13-19                      0.01      0.01      3.80      0.01         0.01
  D13-36                      0.01      0.01      3.16      0.01         0.01
  D13-56                      3.10      3.10      3.36      0.01         0.01
  D13-9                       4.48      4.48      4.71      0.01         0.01
  D4-29                       0.01      0.01     10.51      0.01         0.01
  D4-33                       9.01      9.01     10.77      0.01         0.01
  D4-34                       0.01      0.01     10.77      0.01         0.01
  D6-101                      0.01      0.01     10.71      0.01         0.01
  D6-34                       0.01      0.01      9.71      0.01         0.01
  D6-98                       0.01      0.01     10.38      0.01         0.01
  D7-114                      0.01      0.01      9.84      0.01         0.01
  D7-87                       0.01      0.01     11.38      0.01         0.01
  D8-168                      0.01      0.01      0.58      0.01         0.01
  D8-171                      0.01      0.01      3.91      0.01         0.01
  E10-84                      0.01      0.01     11.29      0.01         0.01
  E12-117                     3.60      3.60      3.60      0.01         0.01
  E8-55                       0.01      0.01      6.71      0.01         0.01
  E8-7                        0.01      0.01     11.46      0.01         0.01
  E8-96                       0.01      0.01      0.01      4.25         0.01
  E8-97                       0.01      0.01      0.01      3.94         0.01
  EL_CAMINO_INLET             5.05      5.05     11.98      0.01         0.01
  F10-17                      0.01      0.01      4.54      0.01         0.01
  F10-3                       0.01      0.01      3.69      0.01         0.01
  F10-51                      0.01      0.01      2.07      0.01         0.01
  F6-135                      0.01      0.01     11.43      0.01         0.01
  F9-80                       0.01      0.01      9.69      0.01         0.01
  G10-100                     0.01      0.01      3.05      0.01         0.01
  G10-101                     0.01      0.01      4.03      0.01         0.01
  G10-37                      0.01      0.01     10.34      0.01         0.01
  G10-38                      0.01      0.01     10.34      0.01         0.01
  G11-44                      0.01      0.01      4.22      0.01         0.01
  G11-51                      0.01      0.01      6.47      0.01         0.01
  G2-3                        2.61      2.61      4.64      0.01         0.01
  G2-6                        0.01      0.01      0.61      0.01         0.01
  G2-7                        0.63      0.63      2.61      0.01         0.01
  G2-8                        4.64      4.64      4.65      0.01         0.01
  G5-11                       0.01      0.01      9.22      0.01         0.01
  G7-23                       0.01      0.01      6.21      0.01         0.01
  G7-58                       0.01      0.01     10.69      0.01         0.01
  G9-23                       0.01      0.01      2.63      0.01         0.01
  G9-41                       0.01      0.01     11.22      0.01         0.01
  H10-64                      0.01      0.01      2.35      0.01         0.01
  H10-72                      0.01      4.11      0.01      4.31         0.01
  H10-73                      0.01      0.01      4.11      0.01         0.01
  H6-4                        0.01      0.01     11.47      0.01         0.01
  H8-88                       0.01      0.01      2.70      0.01         0.01
  H9-2                        0.01      0.01      4.11      0.01         0.01
  H9-3                        0.01      0.01      3.99      0.01         0.01
  H9-66                       2.63      2.63      3.81      3.35         2.09
  H9-67                       0.01      4.53      0.01      4.67         0.01
  H9-74                       0.01      0.01      0.07      0.01         0.01
  H9-76                       0.01      0.01      2.86      0.01         0.01
  H9-93                       3.81      3.81      4.14      0.01         0.01
  K6-55                       0.01      0.01      4.74      0.01         0.01
  K6-94                       0.01      0.01     11.27      0.01         0.01
  K7-47                       0.01      0.01      9.36      0.01         0.01
  K8-113                      0.01      0.01     10.28      0.01         0.01
  L7-83                       0.01      0.01      8.14      0.01         0.01
  LINDA_ROAD_INLET            2.19      2.19     12.00      0.01         0.01
  OUTFALL_1                   0.01      0.01     10.31      0.01         0.01
  SKOFIELD_INLET              0.01      0.01     11.93      0.01         0.01
  TALLANT_INLET               0.01      0.01     11.97      0.01         0.01
  _IMP-C11-28                 0.01      0.01      1.57      0.01         0.01
  
  
  ***************
  Pumping Summary
  ***************
  
  ---------------------------------------------------------------------------------------------------------
                                                  Min       Avg       Max     Total     Power    % Time Off
                        Percent   Number of      Flow      Flow      Flow    Volume     Usage    Pump Curve
  Pump                 Utilized   Start-Ups       GPM       GPM       GPM  10^6 gal     Kw-hr    Low   High
  ---------------------------------------------------------------------------------------------------------
  BRAEMAR_1               18.04          31      0.00    976.06   2005.40     0.128     70.33    0.0    0.0
  BRAEMAR_2                0.00           0      0.00      0.00      0.00     0.000      0.00    0.0    0.0
  BRAEMAR_IMP              0.00           0      0.00      0.00      0.00     0.000      0.00    0.0    0.0
  EL_CAMINO_1             77.82           7      0.00    100.27    246.13     0.054      1.70    0.0    0.0
  EL_CAMINO_2             37.95           1      0.00    112.65    114.78     0.031      0.94    0.0    0.0
  EL_ESTERO               99.06           2      0.00   5059.26  11280.35     3.109     69.01    0.0   13.3
  IMP_COLINA               0.00           0      0.00      0.00      0.00     0.000      0.00    0.0    0.0
  LA_COLINA_1             17.99          17      0.00    366.48    804.00     0.048      8.74    0.0    0.0
  LA_COLINA_2              0.12           1      0.00    835.56    836.00     0.001      0.00    0.0    0.0
  LINDA_ROAD_1            48.14           4      0.00     31.63    195.20     0.011      0.75    0.0    0.0
  LINDA_ROAD_2             0.00           0      0.00      0.00      0.00     0.000      0.00    0.0    0.0
  SKOFIELD_1               0.49           3      0.00    418.88    500.00     0.001      0.21    0.0    0.0
  SKOFIELD_2               0.00           0      0.00      0.00      0.00     0.000      0.00    0.0    0.0
  TALLANT_ROAD_1           0.00           0      0.00      0.00      0.00     0.000      0.00    0.0    0.0
  TALLANT_ROAD_2           0.00           0      0.00      0.00      0.00     0.000      0.00    0.0    0.0
  VIA_LUCERO_1            15.76         107      0.00    565.94    800.00     0.064      7.09    0.0    0.0
  VIA_LUCERO_2             0.00           0      0.00      0.00      0.00     0.000      0.00    0.0    0.0
  

  Analysis begun on:  Fri Nov 29 11:33:36 2019
  Analysis ended on:  Fri Nov 29 11:34:52 2019
  Total elapsed time: 00:01:16