
  EPA STORM WATER MANAGEMENT MODEL - VERSION 5.1 (Build 5.1.013)
  --------------------------------------------------------------

  WARNING 04: minimum elevation drop used for Conduit OF_S001-00036ML1
  WARNING 04: minimum elevation drop used for Conduit OF_S001-00148ML1
  WARNING 04: minimum elevation drop used for Conduit OF_S001-00262ML1
  WARNING 04: minimum elevation drop used for Conduit OF_S001-00550ML1
  WARNING 04: minimum elevation drop used for Conduit OF_S001-00994ML1
  WARNING 04: minimum elevation drop used for Conduit OF_S001-01045ML1
  WARNING 04: minimum elevation drop used for Conduit OF_S001-01071ML1
  WARNING 04: minimum elevation drop used for Conduit OF_S001-01183ML1
  WARNING 04: minimum elevation drop used for Conduit OF_S001-C27L1
  WARNING 04: minimum elevation drop used for Conduit OF_S002-00058ML1
  WARNING 04: minimum elevation drop used for Conduit OF_S002-00350ML1
  WARNING 04: minimum elevation drop used for Conduit OF_S002-B18L1
  WARNING 04: minimum elevation drop used for Conduit OF_S003-00017ML1
  WARNING 04: minimum elevation drop used for Conduit OF_S003-00028ML1
  WARNING 04: minimum elevation drop used for Conduit OF_S003-00157ML1
  WARNING 04: minimum elevation drop used for Conduit OF_S003-00266ML1
  WARNING 04: minimum elevation drop used for Conduit OF_S003-00312ML1
  WARNING 04: minimum elevation drop used for Conduit OF_S003-00592ML1
  WARNING 04: minimum elevation drop used for Conduit OF_S003-C15L1
  WARNING 04: minimum elevation drop used for Conduit OF_S004-00927ML1
  WARNING 04: minimum elevation drop used for Conduit OF_S004-01039ML1
  WARNING 04: minimum elevation drop used for Conduit OF_S004-01156ML1
  WARNING 04: minimum elevation drop used for Conduit OF_S004-01225ML1
  WARNING 04: minimum elevation drop used for Conduit OF_S004-C1L1
  WARNING 04: minimum elevation drop used for Conduit OF_S004-C2L1
  WARNING 04: minimum elevation drop used for Conduit OF_S004-C5L1
  WARNING 04: minimum elevation drop used for Conduit OF_S004-C6L1
  WARNING 04: minimum elevation drop used for Conduit OF_S005-00036ML1
  WARNING 04: minimum elevation drop used for Conduit OF_S005-01075ML1
  WARNING 04: minimum elevation drop used for Conduit OF_S005-01121ML1
  WARNING 04: minimum elevation drop used for Conduit OF_S005-C21L1
  WARNING 04: minimum elevation drop used for Conduit OF_S005-C26L1
  WARNING 04: minimum elevation drop used for Conduit OF_S006-B16L1
  WARNING 04: minimum elevation drop used for Conduit OF_S007-00003ML1
  WARNING 04: minimum elevation drop used for Conduit OF_S007-00219ML1
  WARNING 04: minimum elevation drop used for Conduit OF_S008-00010ML1
  WARNING 04: minimum elevation drop used for Conduit OF_S008-B52L1
  WARNING 04: minimum elevation drop used for Conduit OF_S009-00164ML1
  WARNING 04: minimum elevation drop used for Conduit OF_S009-B26L1
  WARNING 04: minimum elevation drop used for Conduit OF_S011-00307ML1
  WARNING 04: minimum elevation drop used for Conduit OF_S011-00514ML1
  WARNING 04: minimum elevation drop used for Conduit OF_S011-00666ML1
  WARNING 03: negative offset ignored for Link OF_S011-00868ML1
  WARNING 04: minimum elevation drop used for Conduit OF_S011-00901ML1
  WARNING 04: minimum elevation drop used for Conduit OF_S011-01096ML1
  WARNING 04: minimum elevation drop used for Conduit OF_S011-01210ML1
  WARNING 04: minimum elevation drop used for Conduit OF_S011-B13L1
  WARNING 04: minimum elevation drop used for Conduit OF_S011-B1L1
  WARNING 04: minimum elevation drop used for Conduit OF_S011-B2L1
  WARNING 04: minimum elevation drop used for Conduit OF_S011-B40L1
  WARNING 04: minimum elevation drop used for Conduit OF_S011-B6L1
  WARNING 04: minimum elevation drop used for Conduit OF_S011-SS49L1
  WARNING 04: minimum elevation drop used for Conduit OF_S012-00025ML1
  WARNING 04: minimum elevation drop used for Conduit OF_S013-B25L1
  WARNING 04: minimum elevation drop used for Conduit OF_S016-00212ML1
  WARNING 04: minimum elevation drop used for Conduit OF_S016-00578ML1
  WARNING 04: minimum elevation drop used for Conduit OF_S016-B12L1
  WARNING 04: minimum elevation drop used for Conduit OF_S016-B14L1
  WARNING 04: minimum elevation drop used for Conduit OF_S016-B15L1
  WARNING 04: minimum elevation drop used for Conduit OF_S016-B39L1
  WARNING 04: minimum elevation drop used for Conduit OF_S016-SS64L1
  WARNING 04: minimum elevation drop used for Conduit OF_S017-00004ML1
  WARNING 04: minimum elevation drop used for Conduit OF_S017-00071ML1
  WARNING 04: minimum elevation drop used for Conduit OF_S017-00183ML1
  WARNING 04: minimum elevation drop used for Conduit OF_S017-B33L1
  WARNING 04: minimum elevation drop used for Conduit OF_S017-B34L1
  WARNING 04: minimum elevation drop used for Conduit RM-B03-01L1
  WARNING 04: minimum elevation drop used for Conduit RM-B03-02L1
  WARNING 04: minimum elevation drop used for Conduit RM-B03-04L1
  WARNING 04: minimum elevation drop used for Conduit RM-B03-05L1
  WARNING 04: minimum elevation drop used for Conduit RM-B03-06L1
  WARNING 04: minimum elevation drop used for Conduit RM-B04-01L1
  WARNING 04: minimum elevation drop used for Conduit RM-B04-02L1
  WARNING 04: minimum elevation drop used for Conduit RM-B04-03L1
  WARNING 04: minimum elevation drop used for Conduit RM-B04-04L1
  WARNING 04: minimum elevation drop used for Conduit RM-B04-05L1
  WARNING 04: minimum elevation drop used for Conduit RM-B04-06L1
  WARNING 04: minimum elevation drop used for Conduit RM-B04-07L1
  WARNING 04: minimum elevation drop used for Conduit RM-B04-08L1
  WARNING 04: minimum elevation drop used for Conduit RM-B04-14L1
  WARNING 04: minimum elevation drop used for Conduit RM-B04-15L1
  WARNING 04: minimum elevation drop used for Conduit RM-B04-16L1
  WARNING 04: minimum elevation drop used for Conduit RM-B04-17L1
  WARNING 04: minimum elevation drop used for Conduit RM-B04-18L1
  WARNING 04: minimum elevation drop used for Conduit RM-B04-19L1
  WARNING 04: minimum elevation drop used for Conduit RM-B04-20L1
  WARNING 04: minimum elevation drop used for Conduit RM-B04-24L1
  WARNING 04: minimum elevation drop used for Conduit RM-B04-25L1
  WARNING 04: minimum elevation drop used for Conduit RM-B04-26L1
  WARNING 04: minimum elevation drop used for Conduit RM-B04-27L1
  WARNING 04: minimum elevation drop used for Conduit RM-B04-28L1
  WARNING 04: minimum elevation drop used for Conduit RM-B05-01L1
  WARNING 04: minimum elevation drop used for Conduit RM-B05-02L1
  WARNING 04: minimum elevation drop used for Conduit RM-B05-03L1
  WARNING 04: minimum elevation drop used for Conduit RM-B05-04L1
  WARNING 04: minimum elevation drop used for Conduit RM-B05-05L1
  WARNING 04: minimum elevation drop used for Conduit RM-B06-01L1
  WARNING 04: minimum elevation drop used for Conduit RM-B06-02L1
  WARNING 04: minimum elevation drop used for Conduit RM-B06-03L1
  WARNING 04: minimum elevation drop used for Conduit RM-B07-01L1
  WARNING 04: minimum elevation drop used for Conduit RM-B07-04L1
  WARNING 04: minimum elevation drop used for Conduit RM-B07-05L1
  WARNING 04: minimum elevation drop used for Conduit RM-B07-06L1
  WARNING 04: minimum elevation drop used for Conduit RM-B07-07L1
  WARNING 04: minimum elevation drop used for Conduit RM-B08-01L1
  WARNING 04: minimum elevation drop used for Conduit RM-B08-02L1
  WARNING 04: minimum elevation drop used for Conduit RM-B08-03L1
  WARNING 04: minimum elevation drop used for Conduit RM-B08-04L2
  WARNING 04: minimum elevation drop used for Conduit RM-B08-05L1
  WARNING 04: minimum elevation drop used for Conduit RM-B08-10L1
  WARNING 04: minimum elevation drop used for Conduit RM-B15-06L1
  WARNING 04: minimum elevation drop used for Conduit RM-B16-04L1
  WARNING 04: minimum elevation drop used for Conduit RM-B16-05L1
  WARNING 04: minimum elevation drop used for Conduit RM-B16-05L2
  WARNING 04: minimum elevation drop used for Conduit RM-B17-01L1
  WARNING 04: minimum elevation drop used for Conduit RM-B17-05L1
  WARNING 04: minimum elevation drop used for Conduit RM-B17-05L2
  WARNING 04: minimum elevation drop used for Conduit RM-B17-06AL1
  WARNING 04: minimum elevation drop used for Conduit RM-B17-06L1
  WARNING 04: minimum elevation drop used for Conduit RM-B17-07AL1
  WARNING 04: minimum elevation drop used for Conduit RM-B17-07L1
  WARNING 04: minimum elevation drop used for Conduit RM-B17-09AL1
  WARNING 04: minimum elevation drop used for Conduit RM-B17-12L1
  WARNING 04: minimum elevation drop used for Conduit RM-B17-14L1
  WARNING 04: minimum elevation drop used for Conduit RM-B20-04L1
  WARNING 04: minimum elevation drop used for Conduit RM-B21-01L1
  WARNING 04: minimum elevation drop used for Conduit RM-B21-02L1
  WARNING 04: minimum elevation drop used for Conduit RM-B21-03L1
  WARNING 04: minimum elevation drop used for Conduit RM-B21-04L1
  WARNING 04: minimum elevation drop used for Conduit RM-B21-05L1
  WARNING 04: minimum elevation drop used for Conduit RM-B21-06L1
  WARNING 04: minimum elevation drop used for Conduit RM-B25-01L1
  WARNING 04: minimum elevation drop used for Conduit RM-B25-05L1
  WARNING 04: minimum elevation drop used for Conduit RM-B25-07L1
  WARNING 04: minimum elevation drop used for Conduit RM-B29-05L1
  WARNING 04: minimum elevation drop used for Conduit RM-B29-06L1
  WARNING 04: minimum elevation drop used for Conduit RM-B29-07L1
  WARNING 04: minimum elevation drop used for Conduit RM-B29-08L1
  WARNING 04: minimum elevation drop used for Conduit RM-B29-15L1
  WARNING 04: minimum elevation drop used for Conduit RM-B29-16L1
  WARNING 04: minimum elevation drop used for Conduit RM-B29-17L1
  WARNING 04: minimum elevation drop used for Conduit RM-B29-18L1
  WARNING 04: minimum elevation drop used for Conduit RM-B30-01L1
  WARNING 04: minimum elevation drop used for Conduit RM-B31-01L1
  WARNING 04: minimum elevation drop used for Conduit RM-B31-02L1
  WARNING 04: minimum elevation drop used for Conduit RM-B32-02L1
  WARNING 04: minimum elevation drop used for Conduit RM-B32-04L1
  WARNING 04: minimum elevation drop used for Conduit RM-B32-05L1
  WARNING 04: minimum elevation drop used for Conduit RM-B38-01L1
  WARNING 04: minimum elevation drop used for Conduit RM-B38-02L1
  WARNING 04: minimum elevation drop used for Conduit RM-B38-03L1
  WARNING 04: minimum elevation drop used for Conduit RM-B38-04L1
  WARNING 04: minimum elevation drop used for Conduit RM-B38-05L1
  WARNING 04: minimum elevation drop used for Conduit RM-B38-06L1
  WARNING 04: minimum elevation drop used for Conduit RM-B38-08L1
  WARNING 04: minimum elevation drop used for Conduit RM-B38-09L1
  WARNING 04: minimum elevation drop used for Conduit RM-B38-10L1
  WARNING 04: minimum elevation drop used for Conduit RM-B39-11L1
  WARNING 04: minimum elevation drop used for Conduit RM-B45-01L1
  WARNING 04: minimum elevation drop used for Conduit RM-B45-02L1
  WARNING 04: minimum elevation drop used for Conduit RM-B45-03L1
  WARNING 04: minimum elevation drop used for Conduit RM-B45-05L1
  WARNING 04: minimum elevation drop used for Conduit RM-B47-01L1
  WARNING 04: minimum elevation drop used for Conduit RM-B47-03L1
  WARNING 04: minimum elevation drop used for Conduit RM-B47-03L2
  WARNING 04: minimum elevation drop used for Conduit RM-B47-05L1
  WARNING 04: minimum elevation drop used for Conduit RM-B47-08L1
  WARNING 08: elevation drop exceeds length for Conduit RM-B47-10L1
  WARNING 04: minimum elevation drop used for Conduit RM-B48-01L1
  WARNING 04: minimum elevation drop used for Conduit RM-B48-02L1
  WARNING 04: minimum elevation drop used for Conduit RM-B48-04L1
  WARNING 04: minimum elevation drop used for Conduit RM-B48-05L1
  WARNING 04: minimum elevation drop used for Conduit RM-B48-06L1
  WARNING 04: minimum elevation drop used for Conduit RM-B48-07L1
  WARNING 04: minimum elevation drop used for Conduit RM-B48-08L1
  WARNING 04: minimum elevation drop used for Conduit RM-B48-09L1
  WARNING 04: minimum elevation drop used for Conduit RM-B49-01L1
  WARNING 04: minimum elevation drop used for Conduit RM-B49-03L1
  WARNING 04: minimum elevation drop used for Conduit RM-B49-05L1
  WARNING 04: minimum elevation drop used for Conduit RM-B49-17L1
  WARNING 04: minimum elevation drop used for Conduit RM-B49-24L1
  WARNING 04: minimum elevation drop used for Conduit RM-B49-25L1
  WARNING 04: minimum elevation drop used for Conduit RM-B49-26L1
  WARNING 04: minimum elevation drop used for Conduit RM-B49-29L1
  WARNING 04: minimum elevation drop used for Conduit RM-B49-31L1
  WARNING 08: elevation drop exceeds length for Conduit RM-B49-34L1
  WARNING 04: minimum elevation drop used for Conduit RM-B50-01L1
  WARNING 04: minimum elevation drop used for Conduit RM-B50-02L1
  WARNING 04: minimum elevation drop used for Conduit RM-B50-04L1
  WARNING 04: minimum elevation drop used for Conduit RM-B51-02L1
  WARNING 04: minimum elevation drop used for Conduit RM-B51-04L1
  WARNING 04: minimum elevation drop used for Conduit RM-B51-06L1
  WARNING 04: minimum elevation drop used for Conduit RM-C01-02L2
  WARNING 04: minimum elevation drop used for Conduit RM-C02-02L1
  WARNING 04: minimum elevation drop used for Conduit RM-C03-03L1
  WARNING 04: minimum elevation drop used for Conduit RM-C03-04L1
  WARNING 04: minimum elevation drop used for Conduit RM-C05-19L1
  WARNING 04: minimum elevation drop used for Conduit RM-C07-02L1
  WARNING 04: minimum elevation drop used for Conduit RM-C07-03L1
  WARNING 04: minimum elevation drop used for Conduit RM-C07-04L1
  WARNING 04: minimum elevation drop used for Conduit RM-C07-05L1
  WARNING 04: minimum elevation drop used for Conduit RM-C07-09L1
  WARNING 04: minimum elevation drop used for Conduit RM-C08-01L1
  WARNING 04: minimum elevation drop used for Conduit RM-C09-01L1
  WARNING 04: minimum elevation drop used for Conduit RM-C09-08L1
  WARNING 04: minimum elevation drop used for Conduit RM-C11-3AL1
  WARNING 04: minimum elevation drop used for Conduit RM-C11-3BL1
  WARNING 04: minimum elevation drop used for Conduit RM-C11-4AL1
  WARNING 04: minimum elevation drop used for Conduit RM-C11-4BL1
  WARNING 04: minimum elevation drop used for Conduit RM-C11-5AL1
  WARNING 04: minimum elevation drop used for Conduit RM-C11-5BL1
  WARNING 04: minimum elevation drop used for Conduit RM-C13-05L1
  WARNING 04: minimum elevation drop used for Conduit RM-C14-01L1
  WARNING 04: minimum elevation drop used for Conduit RM-C14-04L1
  WARNING 04: minimum elevation drop used for Conduit RM-C24-06L1
  WARNING 04: minimum elevation drop used for Conduit RM-C24-48L1
  WARNING 04: minimum elevation drop used for Conduit RM-C24-50L1
  WARNING 04: minimum elevation drop used for Conduit RM-C24-53L1
  WARNING 04: minimum elevation drop used for Conduit RM-C24-55L1
  WARNING 04: minimum elevation drop used for Conduit RM-C24-57L1
  WARNING 04: minimum elevation drop used for Conduit RM-C24-58L1
  WARNING 08: elevation drop exceeds length for Conduit RM-C24-68L1
  WARNING 04: minimum elevation drop used for Conduit RM-C25-11L1
  WARNING 04: minimum elevation drop used for Conduit RM-C27-02L1
  WARNING 04: minimum elevation drop used for Conduit RM-C27-05L1
  WARNING 04: minimum elevation drop used for Conduit RM-C27-06L1
  WARNING 04: minimum elevation drop used for Conduit RM-C27-101L1
  WARNING 04: minimum elevation drop used for Conduit RM-C27-103L2
  WARNING 04: minimum elevation drop used for Conduit RM-C27-104L1
  WARNING 04: minimum elevation drop used for Conduit RM-C27-105L1
  WARNING 04: minimum elevation drop used for Conduit RM-C27-106L1
  WARNING 04: minimum elevation drop used for Conduit RM-C27-107L1
  WARNING 04: minimum elevation drop used for Conduit RM-C27-108L1
  WARNING 04: minimum elevation drop used for Conduit RM-C27-109L1
  WARNING 04: minimum elevation drop used for Conduit RM-C27-10L1
  WARNING 04: minimum elevation drop used for Conduit RM-C27-110L1
  WARNING 08: elevation drop exceeds length for Conduit RM-C27-112L1
  WARNING 04: minimum elevation drop used for Conduit RM-C27-16L1
  WARNING 04: minimum elevation drop used for Conduit RM-C27-20L1
  WARNING 04: minimum elevation drop used for Conduit RM-C27-21L1
  WARNING 04: minimum elevation drop used for Conduit RM-C27-46L1
  WARNING 04: minimum elevation drop used for Conduit RM-C27-47L1
  WARNING 04: minimum elevation drop used for Conduit RM-C27-48L1
  WARNING 04: minimum elevation drop used for Conduit RM-C27-48L2
  WARNING 04: minimum elevation drop used for Conduit RM-C27-49L1
  WARNING 04: minimum elevation drop used for Conduit RM-C27-52L1
  WARNING 04: minimum elevation drop used for Conduit RM-C27-53L1
  WARNING 04: minimum elevation drop used for Conduit RM-C27-54L1
  WARNING 04: minimum elevation drop used for Conduit RM-C27-57L1
  WARNING 04: minimum elevation drop used for Conduit RM-C27-58L1
  WARNING 04: minimum elevation drop used for Conduit RM-C27-59L1
  WARNING 04: minimum elevation drop used for Conduit RM-C27-62L1
  WARNING 04: minimum elevation drop used for Conduit RM-C27-64L2
  WARNING 04: minimum elevation drop used for Conduit RM-C27-70L1
  WARNING 04: minimum elevation drop used for Conduit RM-C27-72L1
  WARNING 04: minimum elevation drop used for Conduit RM-C27-75L1
  WARNING 04: minimum elevation drop used for Conduit RM-C27-76L1
  WARNING 04: minimum elevation drop used for Conduit RM-C27-80L1
  WARNING 04: minimum elevation drop used for Conduit RM-C27-81L1
  WARNING 04: minimum elevation drop used for Conduit RM-C27-82L1
  WARNING 04: minimum elevation drop used for Conduit RM-C27-83L1
  WARNING 04: minimum elevation drop used for Conduit RM-C27-84L1
  WARNING 04: minimum elevation drop used for Conduit RM-C27-85L1
  WARNING 04: minimum elevation drop used for Conduit RM-C27-86L1
  WARNING 04: minimum elevation drop used for Conduit RM-C27-87L1
  WARNING 04: minimum elevation drop used for Conduit RM-C27-88L1
  WARNING 04: minimum elevation drop used for Conduit RM-C27-92L1
  WARNING 04: minimum elevation drop used for Conduit RM-C27-99L1
  WARNING 04: minimum elevation drop used for Conduit RM-C30-03L1
  WARNING 04: minimum elevation drop used for Conduit RM-C30-08L1
  WARNING 08: elevation drop exceeds length for Conduit RM-C30-15L1
  WARNING 04: minimum elevation drop used for Conduit RM-C32-01L1
  WARNING 04: minimum elevation drop used for Conduit RM-C32-02L1
  WARNING 04: minimum elevation drop used for Conduit RM-C32-03L1
  WARNING 04: minimum elevation drop used for Conduit RM-C32-04L1
  WARNING 04: minimum elevation drop used for Conduit RM-C32-06L1
  WARNING 04: minimum elevation drop used for Conduit RM-C32-11L1
  WARNING 04: minimum elevation drop used for Conduit RM-C32-12L1
  WARNING 04: minimum elevation drop used for Conduit RM-C32-13L1
  WARNING 04: minimum elevation drop used for Conduit RM-C32-20L1
  WARNING 04: minimum elevation drop used for Conduit RM-C32-21L1
  WARNING 04: minimum elevation drop used for Conduit RM-C32-22L1
  WARNING 04: minimum elevation drop used for Conduit RM-C33-02L1
  WARNING 04: minimum elevation drop used for Conduit RM-C33-06L1
  WARNING 04: minimum elevation drop used for Conduit RM-C33-08L1
  WARNING 04: minimum elevation drop used for Conduit RM-C33-20L1
  WARNING 04: minimum elevation drop used for Conduit RM-C34-03L1
  WARNING 04: minimum elevation drop used for Conduit RM-C34-07L1
  WARNING 04: minimum elevation drop used for Conduit RM-SS12-01L1
  WARNING 04: minimum elevation drop used for Conduit RM-SS12-02L1
  WARNING 04: minimum elevation drop used for Conduit RM-SS12-04L1
  WARNING 04: minimum elevation drop used for Conduit RM-SS12-07L1
  WARNING 04: minimum elevation drop used for Conduit RM-SS12-08L1
  WARNING 04: minimum elevation drop used for Conduit RM-SS12-09L1
  WARNING 04: minimum elevation drop used for Conduit RM-SS12-10L1
  WARNING 04: minimum elevation drop used for Conduit RM-SS12-11L1
  WARNING 04: minimum elevation drop used for Conduit RM-SS12-12L1
  WARNING 04: minimum elevation drop used for Conduit RM-SS40-01L1
  WARNING 04: minimum elevation drop used for Conduit RM-SS40-02L1
  WARNING 04: minimum elevation drop used for Conduit RM-SS40-05L1
  WARNING 04: minimum elevation drop used for Conduit RM-SS40-14L1
  WARNING 04: minimum elevation drop used for Conduit RM-SS40-15L1
  WARNING 04: minimum elevation drop used for Conduit RM-SS40-16L1
  WARNING 04: minimum elevation drop used for Conduit RM-SS40-17L1
  WARNING 04: minimum elevation drop used for Conduit RM-SS40-18L1
  WARNING 04: minimum elevation drop used for Conduit RM-SS40-19L1
  WARNING 04: minimum elevation drop used for Conduit RM-SS49-01L1
  WARNING 04: minimum elevation drop used for Conduit RM-SS49-02L1
  WARNING 04: minimum elevation drop used for Conduit RM-SS64-01L1
  WARNING 04: minimum elevation drop used for Conduit RM-SS64-02L1
  WARNING 04: minimum elevation drop used for Conduit RM-TH05-09L1
  WARNING 04: minimum elevation drop used for Conduit RM-TH05-18L1
  WARNING 04: minimum elevation drop used for Conduit RM-TH06-04L1
  WARNING 03: negative offset ignored for Link S001-00383ML1
  WARNING 04: minimum elevation drop used for Conduit S003-00709ML1
  WARNING 03: negative offset ignored for Link S004-00008ML1
  WARNING 03: negative offset ignored for Link S004-01175ML1
  WARNING 03: negative offset ignored for Link S005-00032ML1
  WARNING 04: minimum elevation drop used for Conduit S005-00093ML1
  WARNING 04: minimum elevation drop used for Conduit S005-00520ML1
  WARNING 04: minimum elevation drop used for Conduit S016-00028ML1
  WARNING 04: minimum elevation drop used for Conduit S016-00321ML1
  WARNING 04: minimum elevation drop used for Conduit S017-00134ML1
  WARNING 02: maximum depth increased for Node RM-C27-113
  WARNING 02: maximum depth increased for Node S003-00028M
  WARNING 02: maximum depth increased for Node S004-00486M
  
  *********************************************************
  NOTE: The summary statistics displayed in this report are
  based on results found at every computational time step,  
  not just on results from each reporting time step.
  *********************************************************
  
  ****************
  Analysis Options
  ****************
  Flow Units ............... LPS
  Process Models:
    Rainfall/Runoff ........ NO
    RDII ................... NO
    Snowmelt ............... NO
    Groundwater ............ NO
    Flow Routing ........... YES
    Ponding Allowed ........ NO
    Water Quality .......... NO
  Flow Routing Method ...... DYNWAVE
  Surcharge Method ......... EXTRAN
  Starting Date ............ 06/01/2009 22:00:00
  Ending Date .............. 06/03/2009 00:00:00
  Antecedent Dry Days ...... 5.0
  Report Time Step ......... 00:05:00
  Routing Time Step ........ 10.00 sec
  Variable Time Step ....... NO
  Maximum Trials ........... 8
  Number of Threads ........ 1
  Head Tolerance ........... 0.001500 m
  
  
  **************************        Volume        Volume
  Flow Routing Continuity        hectare-m      10^6 ltr
  **************************     ---------     ---------
  Dry Weather Inflow .......         0.000         0.000
  Wet Weather Inflow .......         0.000         0.000
  Groundwater Inflow .......         0.000         0.000
  RDII Inflow ..............         0.000         0.000
  External Inflow ..........         0.000         0.000
  External Outflow .........         0.000         0.000
  Flooding Loss ............         0.000         0.000
  Evaporation Loss .........         0.000         0.000
  Exfiltration Loss ........         0.000         0.000
  Initial Stored Volume ....         0.000         0.000
  Final Stored Volume ......         0.000         0.000
  Continuity Error (%) .....         0.000
  
  
  ********************************
  Highest Flow Instability Indexes
  ********************************
  All links are stable.
  
  
  ******************
  Node Depth Summary
  ******************
  
  ---------------------------------------------------------------------------------
                                 Average  Maximum  Maximum  Time of Max    Reported
                                   Depth    Depth      HGL   Occurrence   Max Depth
  Node                 Type       Meters   Meters   Meters  days hr:min      Meters
  ---------------------------------------------------------------------------------
  GM-B30-01            JUNCTION  -nan(ind)     0.00     0.15     0  00:00        0.00
  GM-B38-01            JUNCTION  -nan(ind)     0.00    46.00     0  00:00        0.00
  GM-B38-02            JUNCTION  -nan(ind)     0.00    35.00     0  00:00        0.00
  GM-B38-03            JUNCTION  -nan(ind)     0.00     2.80     0  00:00        0.00
  GM-B38-04            JUNCTION  -nan(ind)     0.00    -1.04     0  00:00        0.00
  GM-B40-01            JUNCTION  -nan(ind)     0.00     2.20     0  00:00        0.00
  GM-B45-01            JUNCTION  -nan(ind)     0.00     2.50     0  00:00        0.00
  RM-B01-01            JUNCTION  -nan(ind)     0.00     2.42     0  00:00        0.00
  RM-B02-01            JUNCTION  -nan(ind)     0.00     3.12     0  00:00        0.00
  RM-B03-01            JUNCTION  -nan(ind)     0.00     2.80     0  00:00        0.00
  RM-B03-02            JUNCTION  -nan(ind)     0.00     2.80     0  00:00        0.00
  RM-B03-03            JUNCTION  -nan(ind)     0.00     2.80     0  00:00        0.00
  RM-B03-04            JUNCTION  -nan(ind)     0.00     1.80     0  00:00        0.00
  RM-B03-05            JUNCTION  -nan(ind)     0.00     1.80     0  00:00        0.00
  RM-B03-06            JUNCTION  -nan(ind)     0.00     1.80     0  00:00        0.00
  RM-B03-07            JUNCTION  -nan(ind)     0.00     1.80     0  00:00        0.00
  RM-B04-01            JUNCTION  -nan(ind)     0.00     1.80     0  00:00        0.00
  RM-B04-02            JUNCTION  -nan(ind)     0.00     1.80     0  00:00        0.00
  RM-B04-03            JUNCTION  -nan(ind)     0.00     1.80     0  00:00        0.00
  RM-B04-04            JUNCTION  -nan(ind)     0.00     1.80     0  00:00        0.00
  RM-B04-05            JUNCTION  -nan(ind)     0.00     1.80     0  00:00        0.00
  RM-B04-06            JUNCTION  -nan(ind)     0.00     1.80     0  00:00        0.00
  RM-B04-07            JUNCTION  -nan(ind)     0.00     1.80     0  00:00        0.00
  RM-B04-08            JUNCTION  -nan(ind)     0.00     1.80     0  00:00        0.00
  RM-B04-09            JUNCTION  -nan(ind)     0.00     1.80     0  00:00        0.00
  RM-B04-10            JUNCTION  -nan(ind)     0.00     2.00     0  00:00        0.00
  RM-B04-11            JUNCTION  -nan(ind)     0.00     2.20     0  00:00        0.00
  RM-B04-12            JUNCTION  -nan(ind)     0.00     2.40     0  00:00        0.00
  RM-B04-13            JUNCTION  -nan(ind)     0.00     2.60     0  00:00        0.00
  RM-B04-14            JUNCTION  -nan(ind)     0.00     2.80     0  00:00        0.00
  RM-B04-15            JUNCTION  -nan(ind)     0.00     2.80     0  00:00        0.00
  RM-B04-16            JUNCTION  -nan(ind)     0.00     2.80     0  00:00        0.00
  RM-B04-17            JUNCTION  -nan(ind)     0.00     2.80     0  00:00        0.00
  RM-B04-18            JUNCTION  -nan(ind)     0.00     2.80     0  00:00        0.00
  RM-B04-19            JUNCTION  -nan(ind)     0.00     2.80     0  00:00        0.00
  RM-B04-20            JUNCTION  -nan(ind)     0.00     2.80     0  00:00        0.00
  RM-B04-21            JUNCTION  -nan(ind)     0.00     2.80     0  00:00        0.00
  RM-B04-22            JUNCTION  -nan(ind)     0.00     2.30     0  00:00        0.00
  RM-B04-23            JUNCTION  -nan(ind)     0.00     2.00     0  00:00        0.00
  RM-B04-24            JUNCTION  -nan(ind)     0.00     1.80     0  00:00        0.00
  RM-B04-25            JUNCTION  -nan(ind)     0.00     1.80     0  00:00        0.00
  RM-B04-26            JUNCTION  -nan(ind)     0.00     1.80     0  00:00        0.00
  RM-B04-27            JUNCTION  -nan(ind)     0.00     1.80     0  00:00        0.00
  RM-B04-28            JUNCTION  -nan(ind)     0.00     1.80     0  00:00        0.00
  RM-B04-29            JUNCTION  -nan(ind)     0.00     1.80     0  00:00        0.00
  RM-B04-30            JUNCTION  -nan(ind)     0.00     2.40     0  00:00        0.00
  RM-B05-01            JUNCTION  -nan(ind)     0.00     1.80     0  00:00        0.00
  RM-B05-02            JUNCTION  -nan(ind)     0.00     1.80     0  00:00        0.00
  RM-B05-03            JUNCTION  -nan(ind)     0.00     1.80     0  00:00        0.00
  RM-B05-04            JUNCTION  -nan(ind)     0.00     1.80     0  00:00        0.00
  RM-B05-05            JUNCTION  -nan(ind)     0.00     1.80     0  00:00        0.00
  RM-B05-06            JUNCTION  -nan(ind)     0.00     1.80     0  00:00        0.00
  RM-B05-07            JUNCTION  -nan(ind)     0.00     2.40     0  00:00        0.00
  RM-B06-01            JUNCTION  -nan(ind)     0.00     1.70     0  00:00        0.00
  RM-B06-02            JUNCTION  -nan(ind)     0.00     1.70     0  00:00        0.00
  RM-B06-03            JUNCTION  -nan(ind)     0.00     1.70     0  00:00        0.00
  RM-B06-04            JUNCTION  -nan(ind)     0.00     1.70     0  00:00        0.00
  RM-B07-01            JUNCTION  -nan(ind)     0.00     1.80     0  00:00        0.00
  RM-B07-02            JUNCTION  -nan(ind)     0.00     1.80     0  00:00        0.00
  RM-B07-03            JUNCTION  -nan(ind)     0.00    -1.20     0  00:00        0.00
  RM-B07-04            JUNCTION  -nan(ind)     0.00     1.80     0  00:00        0.00
  RM-B07-05            JUNCTION  -nan(ind)     0.00     1.80     0  00:00        0.00
  RM-B07-06            JUNCTION  -nan(ind)     0.00     1.80     0  00:00        0.00
  RM-B07-07            JUNCTION  -nan(ind)     0.00     1.80     0  00:00        0.00
  RM-B07-08            JUNCTION  -nan(ind)     0.00     1.80     0  00:00        0.00
  RM-B08-01            JUNCTION  -nan(ind)     0.00     1.50     0  00:00        0.00
  RM-B08-02            JUNCTION  -nan(ind)     0.00     1.50     0  00:00        0.00
  RM-B08-03            JUNCTION  -nan(ind)     0.00     1.50     0  00:00        0.00
  RM-B08-04            JUNCTION  -nan(ind)     0.00     1.50     0  00:00        0.00
  RM-B08-05            JUNCTION  -nan(ind)     0.00     0.80     0  00:00        0.00
  RM-B08-06            JUNCTION  -nan(ind)     0.00     0.80     0  00:00        0.00
  RM-B08-07            JUNCTION  -nan(ind)     0.00     1.50     0  00:00        0.00
  RM-B08-08            JUNCTION  -nan(ind)     0.00     2.00     0  00:00        0.00
  RM-B08-09            JUNCTION  -nan(ind)     0.00     2.40     0  00:00        0.00
  RM-B08-10            JUNCTION  -nan(ind)     0.00     1.80     0  00:00        0.00
  RM-B09-01            JUNCTION  -nan(ind)     0.00     0.00     0  00:00        0.00
  RM-B09-02            JUNCTION  -nan(ind)     0.00     0.03     0  00:00        0.00
  RM-B09-03            JUNCTION  -nan(ind)     0.00     1.30     0  00:00        0.00
  RM-B09-04            JUNCTION  -nan(ind)     0.00     1.40     0  00:00        0.00
  RM-B09-05            JUNCTION  -nan(ind)     0.00     1.50     0  00:00        0.00
  RM-B09-06            JUNCTION  -nan(ind)     0.00     1.60     0  00:00        0.00
  RM-B09-07            JUNCTION  -nan(ind)     0.00     0.40     0  00:00        0.00
  RM-B10-01            JUNCTION  -nan(ind)     0.00     2.17     0  00:00        0.00
  RM-B11-01            JUNCTION  -nan(ind)     0.00     1.30     0  00:00        0.00
  RM-B12-01            JUNCTION  -nan(ind)     0.00     4.67     0  00:00        0.00
  RM-B13-01            JUNCTION  -nan(ind)     0.00     1.78     0  00:00        0.00
  RM-B14-01            JUNCTION  -nan(ind)     0.00     3.24     0  00:00        0.00
  RM-B15-01            JUNCTION  -nan(ind)     0.00     1.50     0  00:00        0.00
  RM-B15-02            JUNCTION  -nan(ind)     0.00     1.60     0  00:00        0.00
  RM-B15-03            JUNCTION  -nan(ind)     0.00     1.80     0  00:00        0.00
  RM-B15-04            JUNCTION  -nan(ind)     0.00     3.60     0  00:00        0.00
  RM-B15-05            JUNCTION  -nan(ind)     0.00     3.75     0  00:00        0.00
  RM-B15-06            JUNCTION  -nan(ind)     0.00     3.80     0  00:00        0.00
  RM-B15-07            JUNCTION  -nan(ind)     0.00     3.80     0  00:00        0.00
  RM-B16-01            JUNCTION  -nan(ind)     0.00     0.50     0  00:00        0.00
  RM-B16-02            JUNCTION  -nan(ind)     0.00    -1.00     0  00:00        0.00
  RM-B16-03            JUNCTION  -nan(ind)     0.00     0.50     0  00:00        0.00
  RM-B16-04            JUNCTION  -nan(ind)     0.00     0.30     0  00:00        0.00
  RM-B16-05            JUNCTION  -nan(ind)     0.00     0.30     0  00:00        0.00
  RM-B17-01            JUNCTION  -nan(ind)     0.00     1.00     0  00:00        0.00
  RM-B17-02            JUNCTION  -nan(ind)     0.00     1.00     0  00:00        0.00
  RM-B17-03            JUNCTION  -nan(ind)     0.00     0.80     0  00:00        0.00
  RM-B17-04            JUNCTION  -nan(ind)     0.00     0.76     0  00:00        0.00
  RM-B17-05            JUNCTION  -nan(ind)     0.00     0.50     0  00:00        0.00
  RM-B17-05A           JUNCTION  -nan(ind)     0.00     0.50     0  00:00        0.00
  RM-B17-06            JUNCTION  -nan(ind)     0.00     0.50     0  00:00        0.00
  RM-B17-06A           JUNCTION  -nan(ind)     0.00     1.10     0  00:00        0.00
  RM-B17-07            JUNCTION  -nan(ind)     0.00     0.50     0  00:00        0.00
  RM-B17-07A           JUNCTION  -nan(ind)     0.00     1.10     0  00:00        0.00
  RM-B17-08            JUNCTION  -nan(ind)     0.00     0.50     0  00:00        0.00
  RM-B17-08A           JUNCTION  -nan(ind)     0.00     1.10     0  00:00        0.00
  RM-B17-09            JUNCTION  -nan(ind)     0.00     1.10     0  00:00        0.00
  RM-B17-09A           JUNCTION  -nan(ind)     0.00     1.50     0  00:00        0.00
  RM-B17-10            JUNCTION  -nan(ind)     0.00     1.15     0  00:00        0.00
  RM-B17-11            JUNCTION  -nan(ind)     0.00     1.50     0  00:00        0.00
  RM-B17-12            JUNCTION  -nan(ind)     0.00     1.00     0  00:00        0.00
  RM-B17-13            JUNCTION  -nan(ind)     0.00     1.00     0  00:00        0.00
  RM-B17-14            JUNCTION  -nan(ind)     0.00     1.50     0  00:00        0.00
  RM-B17-15            JUNCTION  -nan(ind)     0.00     1.50     0  00:00        0.00
  RM-B17-16            JUNCTION  -nan(ind)     0.00     1.70     0  00:00        0.00
  RM-B17-17            JUNCTION  -nan(ind)     0.00     2.30     0  00:00        0.00
  RM-B17-18            JUNCTION  -nan(ind)     0.00     2.40     0  00:00        0.00
  RM-B17-19            JUNCTION  -nan(ind)     0.00     1.80     0  00:00        0.00
  RM-B18-01            JUNCTION  -nan(ind)     0.00     3.00     0  00:00        0.00
  RM-B18-02            JUNCTION  -nan(ind)     0.00     3.10     0  00:00        0.00
  RM-B18-03            JUNCTION  -nan(ind)     0.00     3.20     0  00:00        0.00
  RM-B18-04            JUNCTION  -nan(ind)     0.00     3.30     0  00:00        0.00
  RM-B18-05            JUNCTION  -nan(ind)     0.00     3.40     0  00:00        0.00
  RM-B18-06            JUNCTION  -nan(ind)     0.00     4.00     0  00:00        0.00
  RM-B18-07            JUNCTION  -nan(ind)     0.00     6.50     0  00:00        0.00
  RM-B19-01            JUNCTION  -nan(ind)     0.00     0.01     0  00:00        0.00
  RM-B19-02            JUNCTION  -nan(ind)     0.00     0.10     0  00:00        0.00
  RM-B19-03            JUNCTION  -nan(ind)     0.00     0.20     0  00:00        0.00
  RM-B19-04            JUNCTION  -nan(ind)     0.00     0.30     0  00:00        0.00
  RM-B19-05            JUNCTION  -nan(ind)     0.00     0.40     0  00:00        0.00
  RM-B20-01            JUNCTION  -nan(ind)     0.00     0.80     0  00:00        0.00
  RM-B20-02            JUNCTION  -nan(ind)     0.00     1.30     0  00:00        0.00
  RM-B20-03            JUNCTION  -nan(ind)     0.00     1.50     0  00:00        0.00
  RM-B20-04            JUNCTION  -nan(ind)     0.00     1.60     0  00:00        0.00
  RM-B20-05            JUNCTION  -nan(ind)     0.00     1.60     0  00:00        0.00
  RM-B20-06            JUNCTION  -nan(ind)     0.00    22.50     0  00:00        0.00
  RM-B20-07            JUNCTION  -nan(ind)     0.00    27.00     0  00:00        0.00
  RM-B21-01            JUNCTION  -nan(ind)     0.00     0.50     0  00:00        0.00
  RM-B21-02            JUNCTION  -nan(ind)     0.00     0.50     0  00:00        0.00
  RM-B21-03            JUNCTION  -nan(ind)     0.00     0.50     0  00:00        0.00
  RM-B21-04            JUNCTION  -nan(ind)     0.00     0.50     0  00:00        0.00
  RM-B21-05            JUNCTION  -nan(ind)     0.00     0.50     0  00:00        0.00
  RM-B21-06            JUNCTION  -nan(ind)     0.00     0.50     0  00:00        0.00
  RM-B21-07            JUNCTION  -nan(ind)     0.00     0.50     0  00:00        0.00
  RM-B21-08            JUNCTION  -nan(ind)     0.00     1.00     0  00:00        0.00
  RM-B24-01            JUNCTION  -nan(ind)     0.00     1.73     0  00:00        0.00
  RM-B25-01            JUNCTION  -nan(ind)     0.00     2.00     0  00:00        0.00
  RM-B25-02            JUNCTION  -nan(ind)     0.00     2.00     0  00:00        0.00
  RM-B25-03            JUNCTION  -nan(ind)     0.00     1.50     0  00:00        0.00
  RM-B25-04            JUNCTION  -nan(ind)     0.00     1.80     0  00:00        0.00
  RM-B25-05            JUNCTION  -nan(ind)     0.00     1.90     0  00:00        0.00
  RM-B25-06            JUNCTION  -nan(ind)     0.00     1.90     0  00:00        0.00
  RM-B25-07            JUNCTION  -nan(ind)     0.00     2.10     0  00:00        0.00
  RM-B25-08            JUNCTION  -nan(ind)     0.00     2.10     0  00:00        0.00
  RM-B26-01            JUNCTION  -nan(ind)     0.00     0.92     0  00:00        0.00
  RM-B29-01            JUNCTION  -nan(ind)     0.00     0.80     0  00:00        0.00
  RM-B29-02            JUNCTION  -nan(ind)     0.00     2.60     0  00:00        0.00
  RM-B29-03            JUNCTION  -nan(ind)     0.00     1.60     0  00:00        0.00
  RM-B29-04            JUNCTION  -nan(ind)     0.00     1.70     0  00:00        0.00
  RM-B29-05            JUNCTION  -nan(ind)     0.00     3.60     0  00:00        0.00
  RM-B29-06            JUNCTION  -nan(ind)     0.00     3.60     0  00:00        0.00
  RM-B29-07            JUNCTION  -nan(ind)     0.00     3.60     0  00:00        0.00
  RM-B29-08            JUNCTION  -nan(ind)     0.00     3.60     0  00:00        0.00
  RM-B29-09            JUNCTION  -nan(ind)     0.00     3.60     0  00:00        0.00
  RM-B29-10            JUNCTION  -nan(ind)     0.00     4.50     0  00:00        0.00
  RM-B29-11            JUNCTION  -nan(ind)     0.00     3.60     0  00:00        0.00
  RM-B29-12            JUNCTION  -nan(ind)     0.00     2.70     0  00:00        0.00
  RM-B29-13            JUNCTION  -nan(ind)     0.00     2.88     0  00:00        0.00
  RM-B29-14            JUNCTION  -nan(ind)     0.00     2.85     0  00:00        0.00
  RM-B29-15            JUNCTION  -nan(ind)     0.00     2.60     0  00:00        0.00
  RM-B29-16            JUNCTION  -nan(ind)     0.00     2.60     0  00:00        0.00
  RM-B29-17            JUNCTION  -nan(ind)     0.00     2.60     0  00:00        0.00
  RM-B29-18            JUNCTION  -nan(ind)     0.00     2.60     0  00:00        0.00
  RM-B29-19            JUNCTION  -nan(ind)     0.00     2.60     0  00:00        0.00
  RM-B29-20            JUNCTION  -nan(ind)     0.00     3.40     0  00:00        0.00
  RM-B29-21            JUNCTION  -nan(ind)     0.00     3.60     0  00:00        0.00
  RM-B29-22            JUNCTION  -nan(ind)     0.00     7.10     0  00:00        0.00
  RM-B30-01            JUNCTION  -nan(ind)     0.00     2.20     0  00:00        0.00
  RM-B30-02            JUNCTION  -nan(ind)     0.00     2.20     0  00:00        0.00
  RM-B31-01            JUNCTION  -nan(ind)     0.00     2.70     0  00:00        0.00
  RM-B31-02            JUNCTION  -nan(ind)     0.00     2.70     0  00:00        0.00
  RM-B32-01            JUNCTION  -nan(ind)     0.00     1.00     0  00:00        0.00
  RM-B32-02            JUNCTION  -nan(ind)     0.00     1.10     0  00:00        0.00
  RM-B32-03            JUNCTION  -nan(ind)     0.00     1.10     0  00:00        0.00
  RM-B32-04            JUNCTION  -nan(ind)     0.00     0.80     0  00:00        0.00
  RM-B32-05            JUNCTION  -nan(ind)     0.00     0.80     0  00:00        0.00
  RM-B32-06            JUNCTION  -nan(ind)     0.00     0.80     0  00:00        0.00
  RM-B32-07            JUNCTION  -nan(ind)     0.00     2.10     0  00:00        0.00
  RM-B32-08            JUNCTION  -nan(ind)     0.00     2.40     0  00:00        0.00
  RM-B33-01            JUNCTION  -nan(ind)     0.00     3.67     0  00:00        0.00
  RM-B34-01            JUNCTION  -nan(ind)     0.00     3.76     0  00:00        0.00
  RM-B38-01            JUNCTION  -nan(ind)     0.00     1.40     0  00:00        0.00
  RM-B38-02            JUNCTION  -nan(ind)     0.00     1.40     0  00:00        0.00
  RM-B38-03            JUNCTION  -nan(ind)     0.00     1.40     0  00:00        0.00
  RM-B38-04            JUNCTION  -nan(ind)     0.00     1.40     0  00:00        0.00
  RM-B38-05            JUNCTION  -nan(ind)     0.00     1.40     0  00:00        0.00
  RM-B38-06            JUNCTION  -nan(ind)     0.00     1.40     0  00:00        0.00
  RM-B38-07            JUNCTION  -nan(ind)     0.00     1.40     0  00:00        0.00
  RM-B38-08            JUNCTION  -nan(ind)     0.00     1.60     0  00:00        0.00
  RM-B38-09            JUNCTION  -nan(ind)     0.00     1.60     0  00:00        0.00
  RM-B38-10            JUNCTION  -nan(ind)     0.00     1.60     0  00:00        0.00
  RM-B38-11            JUNCTION  -nan(ind)     0.00     1.60     0  00:00        0.00
  RM-B39-01            JUNCTION  -nan(ind)     0.00     2.60     0  00:00        0.00
  RM-B39-02            JUNCTION  -nan(ind)     0.00     2.65     0  00:00        0.00
  RM-B39-03            JUNCTION  -nan(ind)     0.00     2.80     0  00:00        0.00
  RM-B39-04            JUNCTION  -nan(ind)     0.00     9.80     0  00:00        0.00
  RM-B39-05            JUNCTION  -nan(ind)     0.00    11.80     0  00:00        0.00
  RM-B39-06            JUNCTION  -nan(ind)     0.00    17.60     0  00:00        0.00
  RM-B39-07            JUNCTION  -nan(ind)     0.00     6.60     0  00:00        0.00
  RM-B39-07A           JUNCTION  -nan(ind)     0.00     5.70     0  00:00        0.00
  RM-B39-08            JUNCTION  -nan(ind)     0.00     5.30     0  00:00        0.00
  RM-B39-09            JUNCTION  -nan(ind)     0.00     5.80     0  00:00        0.00
  RM-B39-10            JUNCTION  -nan(ind)     0.00     3.80     0  00:00        0.00
  RM-B39-11            JUNCTION  -nan(ind)     0.00     2.80     0  00:00        0.00
  RM-B39-12            JUNCTION  -nan(ind)     0.00     2.80     0  00:00        0.00
  RM-B39-13            JUNCTION  -nan(ind)     0.00     1.80     0  00:00        0.00
  RM-B40-01            JUNCTION  -nan(ind)     0.00     2.20     0  00:00        0.00
  RM-B41-01            JUNCTION  -nan(ind)     0.00    19.60     0  00:00        0.00
  RM-B45-01            JUNCTION  -nan(ind)     0.00     1.70     0  00:00        0.00
  RM-B45-02            JUNCTION  -nan(ind)     0.00     1.70     0  00:00        0.00
  RM-B45-03            JUNCTION  -nan(ind)     0.00     1.70     0  00:00        0.00
  RM-B45-04            JUNCTION  -nan(ind)     0.00     1.70     0  00:00        0.00
  RM-B45-05            JUNCTION  -nan(ind)     0.00     2.14     0  00:00        0.00
  RM-B45-06            JUNCTION  -nan(ind)     0.00     2.14     0  00:00        0.00
  RM-B47-01            JUNCTION  -nan(ind)     0.00     1.20     0  00:00        0.00
  RM-B47-02            JUNCTION  -nan(ind)     0.00     1.20     0  00:00        0.00
  RM-B47-03            JUNCTION  -nan(ind)     0.00     1.70     0  00:00        0.00
  RM-B47-04            JUNCTION  -nan(ind)     0.00     1.70     0  00:00        0.00
  RM-B47-05            JUNCTION  -nan(ind)     0.00     2.70     0  00:00        0.00
  RM-B47-06            JUNCTION  -nan(ind)     0.00     2.70     0  00:00        0.00
  RM-B47-07            JUNCTION  -nan(ind)     0.00     3.40     0  00:00        0.00
  RM-B47-08            JUNCTION  -nan(ind)     0.00     2.70     0  00:00        0.00
  RM-B47-09            JUNCTION  -nan(ind)     0.00     2.70     0  00:00        0.00
  RM-B47-10            JUNCTION  -nan(ind)     0.00     3.30     0  00:00        0.00
  RM-B47-11            JUNCTION  -nan(ind)     0.00     1.70     0  00:00        0.00
  RM-B47-12            JUNCTION  -nan(ind)     0.00     1.60     0  00:00        0.00
  RM-B47-13            JUNCTION  -nan(ind)     0.00     2.60     0  00:00        0.00
  RM-B47-14            JUNCTION  -nan(ind)     0.00     3.30     0  00:00        0.00
  RM-B48-01            JUNCTION  -nan(ind)     0.00     2.70     0  00:00        0.00
  RM-B48-02            JUNCTION  -nan(ind)     0.00     2.70     0  00:00        0.00
  RM-B48-03            JUNCTION  -nan(ind)     0.00     2.70     0  00:00        0.00
  RM-B48-04            JUNCTION  -nan(ind)     0.00     3.70     0  00:00        0.00
  RM-B48-05            JUNCTION  -nan(ind)     0.00     3.70     0  00:00        0.00
  RM-B48-06            JUNCTION  -nan(ind)     0.00     3.70     0  00:00        0.00
  RM-B48-07            JUNCTION  -nan(ind)     0.00     3.70     0  00:00        0.00
  RM-B48-08            JUNCTION  -nan(ind)     0.00     3.70     0  00:00        0.00
  RM-B48-09            JUNCTION  -nan(ind)     0.00     3.70     0  00:00        0.00
  RM-B48-10            JUNCTION  -nan(ind)     0.00     3.70     0  00:00        0.00
  RM-B49-01            JUNCTION  -nan(ind)     0.00     2.50     0  00:00        0.00
  RM-B49-02            JUNCTION  -nan(ind)     0.00     2.50     0  00:00        0.00
  RM-B49-03            JUNCTION  -nan(ind)     0.00     1.50     0  00:00        0.00
  RM-B49-04            JUNCTION  -nan(ind)     0.00     1.50     0  00:00        0.00
  RM-B49-05            JUNCTION  -nan(ind)     0.00     2.50     0  00:00        0.00
  RM-B49-06            JUNCTION  -nan(ind)     0.00     2.50     0  00:00        0.00
  RM-B49-07            JUNCTION  -nan(ind)     0.00     3.50     0  00:00        0.00
  RM-B49-08            JUNCTION  -nan(ind)     0.00     7.30     0  00:00        0.00
  RM-B49-09            JUNCTION  -nan(ind)     0.00     7.50     0  00:00        0.00
  RM-B49-10            JUNCTION  -nan(ind)     0.00    12.50     0  00:00        0.00
  RM-B49-11            JUNCTION  -nan(ind)     0.00    13.30     0  00:00        0.00
  RM-B49-12            JUNCTION  -nan(ind)     0.00    13.50     0  00:00        0.00
  RM-B49-13            JUNCTION  -nan(ind)     0.00    14.50     0  00:00        0.00
  RM-B49-14            JUNCTION  -nan(ind)     0.00    15.50     0  00:00        0.00
  RM-B49-15            JUNCTION  -nan(ind)     0.00    15.70     0  00:00        0.00
  RM-B49-16            JUNCTION  -nan(ind)     0.00    16.50     0  00:00        0.00
  RM-B49-17            JUNCTION  -nan(ind)     0.00    21.50     0  00:00        0.00
  RM-B49-18            JUNCTION  -nan(ind)     0.00    21.50     0  00:00        0.00
  RM-B49-19            JUNCTION  -nan(ind)     0.00    30.00     0  00:00        0.00
  RM-B49-20            JUNCTION  -nan(ind)     0.00    12.50     0  00:00        0.00
  RM-B49-21            JUNCTION  -nan(ind)     0.00     6.00     0  00:00        0.00
  RM-B49-22            JUNCTION  -nan(ind)     0.00     3.20     0  00:00        0.00
  RM-B49-23            JUNCTION  -nan(ind)     0.00     1.70     0  00:00        0.00
  RM-B49-24            JUNCTION  -nan(ind)     0.00     0.50     0  00:00        0.00
  RM-B49-25            JUNCTION  -nan(ind)     0.00     0.50     0  00:00        0.00
  RM-B49-26            JUNCTION  -nan(ind)     0.00     0.50     0  00:00        0.00
  RM-B49-27            JUNCTION  -nan(ind)     0.00     0.50     0  00:00        0.00
  RM-B49-28            JUNCTION  -nan(ind)     0.00     2.15     0  00:00        0.00
  RM-B49-29            JUNCTION  -nan(ind)     0.00     8.50     0  00:00        0.00
  RM-B49-30            JUNCTION  -nan(ind)     0.00     8.50     0  00:00        0.00
  RM-B49-31            JUNCTION  -nan(ind)     0.00     1.00     0  00:00        0.00
  RM-B49-32            JUNCTION  -nan(ind)     0.00     1.00     0  00:00        0.00
  RM-B49-33            JUNCTION  -nan(ind)     0.00     1.20     0  00:00        0.00
  RM-B49-34            JUNCTION  -nan(ind)     0.00     1.50     0  00:00        0.00
  RM-B49-35            JUNCTION  -nan(ind)     0.00     1.50     0  00:00        0.00
  RM-B49-36            JUNCTION  -nan(ind)     0.00     2.50     0  00:00        0.00
  RM-B49-37            JUNCTION  -nan(ind)     0.00     2.80     0  00:00        0.00
  RM-B49-38            JUNCTION  -nan(ind)     0.00     3.50     0  00:00        0.00
  RM-B49-39            JUNCTION  -nan(ind)     0.00    15.50     0  00:00        0.00
  RM-B49-40            JUNCTION  -nan(ind)     0.00    17.50     0  00:00        0.00
  RM-B49-41            JUNCTION  -nan(ind)     0.00    18.50     0  00:00        0.00
  RM-B50-01            JUNCTION  -nan(ind)     0.00     0.70     0  00:00        0.00
  RM-B50-02            JUNCTION  -nan(ind)     0.00     0.70     0  00:00        0.00
  RM-B50-03            JUNCTION  -nan(ind)     0.00     0.70     0  00:00        0.00
  RM-B50-04            JUNCTION  -nan(ind)     0.00     1.00     0  00:00        0.00
  RM-B50-05            JUNCTION  -nan(ind)     0.00     1.00     0  00:00        0.00
  RM-B50-06            JUNCTION  -nan(ind)     0.00     1.50     0  00:00        0.00
  RM-B50-07            JUNCTION  -nan(ind)     0.00     3.20     0  00:00        0.00
  RM-B50-08            JUNCTION  -nan(ind)     0.00     1.70     0  00:00        0.00
  RM-B50-09            JUNCTION  -nan(ind)     0.00    24.70     0  00:00        0.00
  RM-B51-01            JUNCTION  -nan(ind)     0.00     1.80     0  00:00        0.00
  RM-B51-02            JUNCTION  -nan(ind)     0.00     0.30     0  00:00        0.00
  RM-B51-03            JUNCTION  -nan(ind)     0.00     0.30     0  00:00        0.00
  RM-B51-04            JUNCTION  -nan(ind)     0.00     0.95     0  00:00        0.00
  RM-B51-05            JUNCTION  -nan(ind)     0.00     0.95     0  00:00        0.00
  RM-B51-06            JUNCTION  -nan(ind)     0.00     1.70     0  00:00        0.00
  RM-B51-07            JUNCTION  -nan(ind)     0.00     1.70     0  00:00        0.00
  RM-B52-01            JUNCTION  -nan(ind)     0.00     0.40     0  00:00        0.00
  RM-B52-02            JUNCTION  -nan(ind)     0.00     0.80     0  00:00        0.00
  RM-B52-03            JUNCTION  -nan(ind)     0.00     1.40     0  00:00        0.00
  RM-B52-04            JUNCTION  -nan(ind)     0.00     2.00     0  00:00        0.00
  RM-B52-05            JUNCTION  -nan(ind)     0.00     2.60     0  00:00        0.00
  RM-B52-06            JUNCTION  -nan(ind)     0.00     6.30     0  00:00        0.00
  RM-B53-01            JUNCTION  -nan(ind)     0.00     2.07     0  00:00        0.00
  RM-B54-01            JUNCTION  -nan(ind)     0.00     3.00     0  00:00        0.00
  RM-B54-02            JUNCTION  -nan(ind)     0.00     3.70     0  00:00        0.00
  RM-C01-01            JUNCTION  -nan(ind)     0.00     0.40     0  00:00        0.00
  RM-C01-02            JUNCTION  -nan(ind)     0.00     0.50     0  00:00        0.00
  RM-C01-03            JUNCTION  -nan(ind)     0.00     0.60     0  00:00        0.00
  RM-C01-04            JUNCTION  -nan(ind)     0.00     0.70     0  00:00        0.00
  RM-C01-05            JUNCTION  -nan(ind)     0.00     0.50     0  00:00        0.00
  RM-C01-06            JUNCTION  -nan(ind)     0.00     0.60     0  00:00        0.00
  RM-C01-07            JUNCTION  -nan(ind)     0.00     0.70     0  00:00        0.00
  RM-C02-01            JUNCTION  -nan(ind)     0.00     0.01     0  00:00        0.00
  RM-C02-02            JUNCTION  -nan(ind)     0.00     0.80     0  00:00        0.00
  RM-C03-01            JUNCTION  -nan(ind)     0.00     0.01     0  00:00        0.00
  RM-C03-02            JUNCTION  -nan(ind)     0.00     0.10     0  00:00        0.00
  RM-C03-03            JUNCTION  -nan(ind)     0.00     0.80     0  00:00        0.00
  RM-C03-04            JUNCTION  -nan(ind)     0.00     0.80     0  00:00        0.00
  RM-C04-01            JUNCTION  -nan(ind)     0.00     2.45     0  00:00        0.00
  RM-C04-02            JUNCTION  -nan(ind)     0.00     2.00     0  00:00        0.00
  RM-C04-03            JUNCTION  -nan(ind)     0.00     2.80     0  00:00        0.00
  RM-C04-04            JUNCTION  -nan(ind)     0.00     5.00     0  00:00        0.00
  RM-C04-05            JUNCTION  -nan(ind)     0.00     6.00     0  00:00        0.00
  RM-C04-06            JUNCTION  -nan(ind)     0.00     8.00     0  00:00        0.00
  RM-C04-07            JUNCTION  -nan(ind)     0.00     9.00     0  00:00        0.00
  RM-C04-08            JUNCTION  -nan(ind)     0.00    10.30     0  00:00        0.00
  RM-C04-09            JUNCTION  -nan(ind)     0.00     9.30     0  00:00        0.00
  RM-C04-10            JUNCTION  -nan(ind)     0.00     9.10     0  00:00        0.00
  RM-C05-01            JUNCTION  -nan(ind)     0.00    -3.15     0  00:00        0.00
  RM-C05-02            JUNCTION  -nan(ind)     0.00    -3.13     0  00:00        0.00
  RM-C05-03            JUNCTION  -nan(ind)     0.00    -3.03     0  00:00        0.00
  RM-C05-04            JUNCTION  -nan(ind)     0.00    -2.70     0  00:00        0.00
  RM-C05-05            JUNCTION  -nan(ind)     0.00    -2.69     0  00:00        0.00
  RM-C05-06            JUNCTION  -nan(ind)     0.00    -2.14     0  00:00        0.00
  RM-C05-07            JUNCTION  -nan(ind)     0.00    -1.97     0  00:00        0.00
  RM-C05-08            JUNCTION  -nan(ind)     0.00    -1.84     0  00:00        0.00
  RM-C05-09            JUNCTION  -nan(ind)     0.00    -1.72     0  00:00        0.00
  RM-C05-10            JUNCTION  -nan(ind)     0.00     0.15     0  00:00        0.00
  RM-C05-11            JUNCTION  -nan(ind)     0.00     0.35     0  00:00        0.00
  RM-C05-12            JUNCTION  -nan(ind)     0.00     0.55     0  00:00        0.00
  RM-C05-13            JUNCTION  -nan(ind)     0.00     0.65     0  00:00        0.00
  RM-C05-14            JUNCTION  -nan(ind)     0.00     0.97     0  00:00        0.00
  RM-C05-15            JUNCTION  -nan(ind)     0.00     1.05     0  00:00        0.00
  RM-C05-16            JUNCTION  -nan(ind)     0.00     1.15     0  00:00        0.00
  RM-C05-17            JUNCTION  -nan(ind)     0.00     1.25     0  00:00        0.00
  RM-C05-18            JUNCTION  -nan(ind)     0.00     1.35     0  00:00        0.00
  RM-C05-19            JUNCTION  -nan(ind)     0.00     1.75     0  00:00        0.00
  RM-C05-20            JUNCTION  -nan(ind)     0.00     0.87     0  00:00        0.00
  RM-C06-01            JUNCTION  -nan(ind)     0.00     2.18     0  00:00        0.00
  RM-C07-01            JUNCTION  -nan(ind)     0.00     2.15     0  00:00        0.00
  RM-C07-02            JUNCTION  -nan(ind)     0.00     2.75     0  00:00        0.00
  RM-C07-03            JUNCTION  -nan(ind)     0.00     2.75     0  00:00        0.00
  RM-C07-04            JUNCTION  -nan(ind)     0.00     2.75     0  00:00        0.00
  RM-C07-05            JUNCTION  -nan(ind)     0.00     2.75     0  00:00        0.00
  RM-C07-06            JUNCTION  -nan(ind)     0.00     2.75     0  00:00        0.00
  RM-C07-07            JUNCTION  -nan(ind)     0.00     3.25     0  00:00        0.00
  RM-C07-08            JUNCTION  -nan(ind)     0.00     4.25     0  00:00        0.00
  RM-C07-09            JUNCTION  -nan(ind)     0.00     6.75     0  00:00        0.00
  RM-C07-10            JUNCTION  -nan(ind)     0.00     6.75     0  00:00        0.00
  RM-C07-11            JUNCTION  -nan(ind)     0.00     7.70     0  00:00        0.00
  RM-C07-12            JUNCTION  -nan(ind)     0.00     3.45     0  00:00        0.00
  RM-C08-01            JUNCTION  -nan(ind)     0.00     1.00     0  00:00        0.00
  RM-C08-02            JUNCTION  -nan(ind)     0.00     1.00     0  00:00        0.00
  RM-C08-03            JUNCTION  -nan(ind)     0.00     1.23     0  00:00        0.00
  RM-C08-04            JUNCTION  -nan(ind)     0.00     1.24     0  00:00        0.00
  RM-C08-05            JUNCTION  -nan(ind)     0.00     1.31     0  00:00        0.00
  RM-C09-01            JUNCTION  -nan(ind)     0.00    -1.30     0  00:00        0.00
  RM-C09-02            JUNCTION  -nan(ind)     0.00    -1.30     0  00:00        0.00
  RM-C09-03            JUNCTION  -nan(ind)     0.00    -0.80     0  00:00        0.00
  RM-C09-04            JUNCTION  -nan(ind)     0.00    -0.70     0  00:00        0.00
  RM-C09-05            JUNCTION  -nan(ind)     0.00     3.98     0  00:00        0.00
  RM-C09-06            JUNCTION  -nan(ind)     0.00     1.40     0  00:00        0.00
  RM-C09-07            JUNCTION  -nan(ind)     0.00     1.30     0  00:00        0.00
  RM-C09-08            JUNCTION  -nan(ind)     0.00     1.20     0  00:00        0.00
  RM-C09-09            JUNCTION  -nan(ind)     0.00     1.20     0  00:00        0.00
  RM-C09-10            JUNCTION  -nan(ind)     0.00     1.10     0  00:00        0.00
  RM-C09-11            JUNCTION  -nan(ind)     0.00     1.00     0  00:00        0.00
  RM-C09-12            JUNCTION  -nan(ind)     0.00     0.60     0  00:00        0.00
  RM-C10-01            JUNCTION  -nan(ind)     0.00    -4.40     0  00:00        0.00
  RM-C10-02            JUNCTION  -nan(ind)     0.00    -4.25     0  00:00        0.00
  RM-C10-03            JUNCTION  -nan(ind)     0.00    -3.00     0  00:00        0.00
  RM-C10-04            JUNCTION  -nan(ind)     0.00    -2.00     0  00:00        0.00
  RM-C10-05            JUNCTION  -nan(ind)     0.00    -1.80     0  00:00        0.00
  RM-C10-06            JUNCTION  -nan(ind)     0.00    -0.50     0  00:00        0.00
  RM-C11-01            JUNCTION  -nan(ind)     0.00    -3.50     0  00:00        0.00
  RM-C11-10A           JUNCTION  -nan(ind)     0.00    -2.85     0  00:00        0.00
  RM-C11-10B           JUNCTION  -nan(ind)     0.00    -2.85     0  00:00        0.00
  RM-C11-11A           JUNCTION  -nan(ind)     0.00    -1.50     0  00:00        0.00
  RM-C11-11B           JUNCTION  -nan(ind)     0.00    -1.50     0  00:00        0.00
  RM-C11-12A           JUNCTION  -nan(ind)     0.00     1.20     0  00:00        0.00
  RM-C11-12B           JUNCTION  -nan(ind)     0.00     1.20     0  00:00        0.00
  RM-C11-13A           JUNCTION  -nan(ind)     0.00     1.15     0  00:00        0.00
  RM-C11-13B           JUNCTION  -nan(ind)     0.00     1.15     0  00:00        0.00
  RM-C11-14B           JUNCTION  -nan(ind)     0.00     1.25     0  00:00        0.00
  RM-C11-2A            JUNCTION  -nan(ind)     0.00    -3.45     0  00:00        0.00
  RM-C11-2B            JUNCTION  -nan(ind)     0.00    -3.45     0  00:00        0.00
  RM-C11-3A            JUNCTION  -nan(ind)     0.00    -3.25     0  00:00        0.00
  RM-C11-3B            JUNCTION  -nan(ind)     0.00    -3.25     0  00:00        0.00
  RM-C11-4A            JUNCTION  -nan(ind)     0.00    -3.25     0  00:00        0.00
  RM-C11-4B            JUNCTION  -nan(ind)     0.00    -3.25     0  00:00        0.00
  RM-C11-5A            JUNCTION  -nan(ind)     0.00    -3.25     0  00:00        0.00
  RM-C11-5B            JUNCTION  -nan(ind)     0.00    -3.25     0  00:00        0.00
  RM-C11-6A            JUNCTION  -nan(ind)     0.00    -3.25     0  00:00        0.00
  RM-C11-6B            JUNCTION  -nan(ind)     0.00    -3.25     0  00:00        0.00
  RM-C11-7A            JUNCTION  -nan(ind)     0.00    -3.00     0  00:00        0.00
  RM-C11-7B            JUNCTION  -nan(ind)     0.00    -3.00     0  00:00        0.00
  RM-C11-8A            JUNCTION  -nan(ind)     0.00    -2.95     0  00:00        0.00
  RM-C11-8B            JUNCTION  -nan(ind)     0.00    -2.95     0  00:00        0.00
  RM-C11-9A            JUNCTION  -nan(ind)     0.00    -2.90     0  00:00        0.00
  RM-C11-9B            JUNCTION  -nan(ind)     0.00    -2.90     0  00:00        0.00
  RM-C12-01            JUNCTION  -nan(ind)     0.00     5.40     0  00:00        0.00
  RM-C13-01            JUNCTION  -nan(ind)     0.00    -2.50     0  00:00        0.00
  RM-C13-02            JUNCTION  -nan(ind)     0.00    -2.40     0  00:00        0.00
  RM-C13-03            JUNCTION  -nan(ind)     0.00    -2.30     0  00:00        0.00
  RM-C13-04            JUNCTION  -nan(ind)     0.00    -2.20     0  00:00        0.00
  RM-C13-05            JUNCTION  -nan(ind)     0.00    -0.50     0  00:00        0.00
  RM-C13-06            JUNCTION  -nan(ind)     0.00    -0.50     0  00:00        0.00
  RM-C13-07            JUNCTION  -nan(ind)     0.00     1.00     0  00:00        0.00
  RM-C14-01            JUNCTION  -nan(ind)     0.00    -2.15     0  00:00        0.00
  RM-C14-02            JUNCTION  -nan(ind)     0.00    -2.15     0  00:00        0.00
  RM-C14-03            JUNCTION  -nan(ind)     0.00    -1.80     0  00:00        0.00
  RM-C14-04            JUNCTION  -nan(ind)     0.00    -1.50     0  00:00        0.00
  RM-C14-05            JUNCTION  -nan(ind)     0.00    -1.50     0  00:00        0.00
  RM-C14-06            JUNCTION  -nan(ind)     0.00    -1.40     0  00:00        0.00
  RM-C14-07            JUNCTION  -nan(ind)     0.00    -1.30     0  00:00        0.00
  RM-C14-08            JUNCTION  -nan(ind)     0.00    -1.20     0  00:00        0.00
  RM-C14-09            JUNCTION  -nan(ind)     0.00    -0.90     0  00:00        0.00
  RM-C14-10            JUNCTION  -nan(ind)     0.00     0.60     0  00:00        0.00
  RM-C14-11            JUNCTION  -nan(ind)     0.00     1.29     0  00:00        0.00
  RM-C14-12            JUNCTION  -nan(ind)     0.00    -0.15     0  00:00        0.00
  RM-C14-13            JUNCTION  -nan(ind)     0.00     0.01     0  00:00        0.00
  RM-C14-14            JUNCTION  -nan(ind)     0.00     0.20     0  00:00        0.00
  RM-C15-01            JUNCTION  -nan(ind)     0.00     0.90     0  00:00        0.00
  RM-C15-02            JUNCTION  -nan(ind)     0.00     1.00     0  00:00        0.00
  RM-C15-03            JUNCTION  -nan(ind)     0.00     1.05     0  00:00        0.00
  RM-C15-04            JUNCTION  -nan(ind)     0.00     1.10     0  00:00        0.00
  RM-C15-05            JUNCTION  -nan(ind)     0.00     1.20     0  00:00        0.00
  RM-C15-06            JUNCTION  -nan(ind)     0.00     1.25     0  00:00        0.00
  RM-C15-07            JUNCTION  -nan(ind)     0.00     1.80     0  00:00        0.00
  RM-C15-08            JUNCTION  -nan(ind)     0.00     2.00     0  00:00        0.00
  RM-C15-09            JUNCTION  -nan(ind)     0.00     2.55     0  00:00        0.00
  RM-C15-10            JUNCTION  -nan(ind)     0.00     1.50     0  00:00        0.00
  RM-C15-11            JUNCTION  -nan(ind)     0.00     1.45     0  00:00        0.00
  RM-C15-12            JUNCTION  -nan(ind)     0.00     1.40     0  00:00        0.00
  RM-C15-13            JUNCTION  -nan(ind)     0.00     1.35     0  00:00        0.00
  RM-C15-14            JUNCTION  -nan(ind)     0.00     1.30     0  00:00        0.00
  RM-C15-15            JUNCTION  -nan(ind)     0.00     1.25     0  00:00        0.00
  RM-C15-16            JUNCTION  -nan(ind)     0.00     1.20     0  00:00        0.00
  RM-C15-17            JUNCTION  -nan(ind)     0.00     1.15     0  00:00        0.00
  RM-C16-01            JUNCTION  -nan(ind)     0.00    -1.00     0  00:00        0.00
  RM-C16-02            JUNCTION  -nan(ind)     0.00    -0.90     0  00:00        0.00
  RM-C16-03            JUNCTION  -nan(ind)     0.00    -0.50     0  00:00        0.00
  RM-C16-04            JUNCTION  -nan(ind)     0.00     1.00     0  00:00        0.00
  RM-C17-01            JUNCTION  -nan(ind)     0.00     0.01     0  00:00        0.00
  RM-C17-02            JUNCTION  -nan(ind)     0.00     0.10     0  00:00        0.00
  RM-C17-03            JUNCTION  -nan(ind)     0.00     0.30     0  00:00        0.00
  RM-C17-04            JUNCTION  -nan(ind)     0.00     0.40     0  00:00        0.00
  RM-C17-05            JUNCTION  -nan(ind)     0.00     0.45     0  00:00        0.00
  RM-C17-06            JUNCTION  -nan(ind)     0.00     0.50     0  00:00        0.00
  RM-C17-07            JUNCTION  -nan(ind)     0.00     0.60     0  00:00        0.00
  RM-C20-01            JUNCTION  -nan(ind)     0.00     1.40     0  00:00        0.00
  RM-C20-02            JUNCTION  -nan(ind)     0.00     2.00     0  00:00        0.00
  RM-C20-03            JUNCTION  -nan(ind)     0.00     3.20     0  00:00        0.00
  RM-C20-04            JUNCTION  -nan(ind)     0.00    12.00     0  00:00        0.00
  RM-C20-05            JUNCTION  -nan(ind)     0.00    13.00     0  00:00        0.00
  RM-C20-06            JUNCTION  -nan(ind)     0.00    11.00     0  00:00        0.00
  RM-C20-07            JUNCTION  -nan(ind)     0.00     5.50     0  00:00        0.00
  RM-C20-08            JUNCTION  -nan(ind)     0.00     3.00     0  00:00        0.00
  RM-C20-09            JUNCTION  -nan(ind)     0.00     3.20     0  00:00        0.00
  RM-C20-10            JUNCTION  -nan(ind)     0.00     3.30     0  00:00        0.00
  RM-C20-11            JUNCTION  -nan(ind)     0.00     6.00     0  00:00        0.00
  RM-C20-12            JUNCTION  -nan(ind)     0.00    10.50     0  00:00        0.00
  RM-C20-13            JUNCTION  -nan(ind)     0.00    14.00     0  00:00        0.00
  RM-C21-01            JUNCTION  -nan(ind)     0.00    -0.35     0  00:00        0.00
  RM-C21-02            JUNCTION  -nan(ind)     0.00    -0.30     0  00:00        0.00
  RM-C21-03            JUNCTION  -nan(ind)     0.00    -0.25     0  00:00        0.00
  RM-C21-04            JUNCTION  -nan(ind)     0.00    -0.20     0  00:00        0.00
  RM-C21-05            JUNCTION  -nan(ind)     0.00    -0.10     0  00:00        0.00
  RM-C21-06            JUNCTION  -nan(ind)     0.00     0.01     0  00:00        0.00
  RM-C21-07            JUNCTION  -nan(ind)     0.00     0.17     0  00:00        0.00
  RM-C21-08            JUNCTION  -nan(ind)     0.00     0.20     0  00:00        0.00
  RM-C21-09            JUNCTION  -nan(ind)     0.00     0.25     0  00:00        0.00
  RM-C21-10            JUNCTION  -nan(ind)     0.00     0.88     0  00:00        0.00
  RM-C21-11            JUNCTION  -nan(ind)     0.00     0.90     0  00:00        0.00
  RM-C21-12            JUNCTION  -nan(ind)     0.00     0.93     0  00:00        0.00
  RM-C21-13            JUNCTION  -nan(ind)     0.00     0.95     0  00:00        0.00
  RM-C21-14            JUNCTION  -nan(ind)     0.00     0.97     0  00:00        0.00
  RM-C21-15            JUNCTION  -nan(ind)     0.00     1.00     0  00:00        0.00
  RM-C21-16            JUNCTION  -nan(ind)     0.00     1.70     0  00:00        0.00
  RM-C21-17            JUNCTION  -nan(ind)     0.00     1.73     0  00:00        0.00
  RM-C21-18            JUNCTION  -nan(ind)     0.00     1.90     0  00:00        0.00
  RM-C22-01            JUNCTION  -nan(ind)     0.00     0.01     0  00:00        0.00
  RM-C22-02            JUNCTION  -nan(ind)     0.00     0.10     0  00:00        0.00
  RM-C22-03            JUNCTION  -nan(ind)     0.00     0.20     0  00:00        0.00
  RM-C22-04            JUNCTION  -nan(ind)     0.00     0.30     0  00:00        0.00
  RM-C22-05            JUNCTION  -nan(ind)     0.00     0.40     0  00:00        0.00
  RM-C22-06            JUNCTION  -nan(ind)     0.00     0.50     0  00:00        0.00
  RM-C22-07            JUNCTION  -nan(ind)     0.00     0.55     0  00:00        0.00
  RM-C24-01            JUNCTION  -nan(ind)     0.00     1.90     0  00:00        0.00
  RM-C24-02            JUNCTION  -nan(ind)     0.00     2.00     0  00:00        0.00
  RM-C24-03            JUNCTION  -nan(ind)     0.00     2.05     0  00:00        0.00
  RM-C24-04            JUNCTION  -nan(ind)     0.00     2.10     0  00:00        0.00
  RM-C24-05            JUNCTION  -nan(ind)     0.00     2.15     0  00:00        0.00
  RM-C24-06            JUNCTION  -nan(ind)     0.00     2.20     0  00:00        0.00
  RM-C24-07            JUNCTION  -nan(ind)     0.00     2.20     0  00:00        0.00
  RM-C24-08            JUNCTION  -nan(ind)     0.00     2.25     0  00:00        0.00
  RM-C24-09            JUNCTION  -nan(ind)     0.00     2.30     0  00:00        0.00
  RM-C24-10            JUNCTION  -nan(ind)     0.00     2.35     0  00:00        0.00
  RM-C24-11            JUNCTION  -nan(ind)     0.00     2.40     0  00:00        0.00
  RM-C24-12            JUNCTION  -nan(ind)     0.00     3.50     0  00:00        0.00
  RM-C24-13            JUNCTION  -nan(ind)     0.00     4.00     0  00:00        0.00
  RM-C24-14            JUNCTION  -nan(ind)     0.00     4.30     0  00:00        0.00
  RM-C24-15            JUNCTION  -nan(ind)     0.00     4.50     0  00:00        0.00
  RM-C24-16            JUNCTION  -nan(ind)     0.00     5.00     0  00:00        0.00
  RM-C24-17            JUNCTION  -nan(ind)     0.00     5.70     0  00:00        0.00
  RM-C24-18            JUNCTION  -nan(ind)     0.00     6.40     0  00:00        0.00
  RM-C24-19            JUNCTION  -nan(ind)     0.00     6.70     0  00:00        0.00
  RM-C24-20            JUNCTION  -nan(ind)     0.00     7.20     0  00:00        0.00
  RM-C24-21            JUNCTION  -nan(ind)     0.00     7.60     0  00:00        0.00
  RM-C24-22            JUNCTION  -nan(ind)     0.00     7.99     0  00:00        0.00
  RM-C24-23            JUNCTION  -nan(ind)     0.00     8.00     0  00:00        0.00
  RM-C24-24            JUNCTION  -nan(ind)     0.00     7.85     0  00:00        0.00
  RM-C24-25            JUNCTION  -nan(ind)     0.00     7.75     0  00:00        0.00
  RM-C24-26            JUNCTION  -nan(ind)     0.00     7.30     0  00:00        0.00
  RM-C24-27            JUNCTION  -nan(ind)     0.00     7.00     0  00:00        0.00
  RM-C24-28            JUNCTION  -nan(ind)     0.00     6.30     0  00:00        0.00
  RM-C24-29            JUNCTION  -nan(ind)     0.00     5.50     0  00:00        0.00
  RM-C24-30            JUNCTION  -nan(ind)     0.00     4.50     0  00:00        0.00
  RM-C24-31            JUNCTION  -nan(ind)     0.00     4.30     0  00:00        0.00
  RM-C24-32            JUNCTION  -nan(ind)     0.00     4.20     0  00:00        0.00
  RM-C24-33            JUNCTION  -nan(ind)     0.00     4.00     0  00:00        0.00
  RM-C24-34            JUNCTION  -nan(ind)     0.00     3.13     0  00:00        0.00
  RM-C24-35            JUNCTION  -nan(ind)     0.00     3.00     0  00:00        0.00
  RM-C24-36            JUNCTION  -nan(ind)     0.00     2.70     0  00:00        0.00
  RM-C24-37            JUNCTION  -nan(ind)     0.00     2.50     0  00:00        0.00
  RM-C24-38            JUNCTION  -nan(ind)     0.00     1.87     0  00:00        0.00
  RM-C24-39            JUNCTION  -nan(ind)     0.00     1.85     0  00:00        0.00
  RM-C24-40            JUNCTION  -nan(ind)     0.00     1.83     0  00:00        0.00
  RM-C24-41            JUNCTION  -nan(ind)     0.00     1.80     0  00:00        0.00
  RM-C24-42            JUNCTION  -nan(ind)     0.00     1.78     0  00:00        0.00
  RM-C24-43            JUNCTION  -nan(ind)     0.00     1.75     0  00:00        0.00
  RM-C24-44            JUNCTION  -nan(ind)     0.00     1.70     0  00:00        0.00
  RM-C24-45            JUNCTION  -nan(ind)     0.00     1.50     0  00:00        0.00
  RM-C24-46            JUNCTION  -nan(ind)     0.00     1.00     0  00:00        0.00
  RM-C24-47            JUNCTION  -nan(ind)     0.00     0.60     0  00:00        0.00
  RM-C24-48            JUNCTION  -nan(ind)     0.00     0.65     0  00:00        0.00
  RM-C24-49            JUNCTION  -nan(ind)     0.00     0.65     0  00:00        0.00
  RM-C24-50            JUNCTION  -nan(ind)     0.00     0.70     0  00:00        0.00
  RM-C24-51            JUNCTION  -nan(ind)     0.00     0.70     0  00:00        0.00
  RM-C24-52            JUNCTION  -nan(ind)     0.00     0.85     0  00:00        0.00
  RM-C24-53            JUNCTION  -nan(ind)     0.00     0.90     0  00:00        0.00
  RM-C24-54            JUNCTION  -nan(ind)     0.00     0.90     0  00:00        0.00
  RM-C24-55            JUNCTION  -nan(ind)     0.00     1.00     0  00:00        0.00
  RM-C24-56            JUNCTION  -nan(ind)     0.00     1.00     0  00:00        0.00
  RM-C24-57            JUNCTION  -nan(ind)     0.00     1.05     0  00:00        0.00
  RM-C24-58            JUNCTION  -nan(ind)     0.00     1.05     0  00:00        0.00
  RM-C24-59            JUNCTION  -nan(ind)     0.00     1.05     0  00:00        0.00
  RM-C24-60            JUNCTION  -nan(ind)     0.00     1.10     0  00:00        0.00
  RM-C24-61            JUNCTION  -nan(ind)     0.00     1.15     0  00:00        0.00
  RM-C24-62            JUNCTION  -nan(ind)     0.00     1.20     0  00:00        0.00
  RM-C24-63            JUNCTION  -nan(ind)     0.00     1.25     0  00:00        0.00
  RM-C24-64            JUNCTION  -nan(ind)     0.00     1.30     0  00:00        0.00
  RM-C24-65            JUNCTION  -nan(ind)     0.00     1.35     0  00:00        0.00
  RM-C24-66            JUNCTION  -nan(ind)     0.00     1.40     0  00:00        0.00
  RM-C24-67            JUNCTION  -nan(ind)     0.00     1.45     0  00:00        0.00
  RM-C24-68            JUNCTION  -nan(ind)     0.00     1.50     0  00:00        0.00
  RM-C25-01            JUNCTION  -nan(ind)     0.00    -0.50     0  00:00        0.00
  RM-C25-02            JUNCTION  -nan(ind)     0.00    -0.40     0  00:00        0.00
  RM-C25-03            JUNCTION  -nan(ind)     0.00    -0.30     0  00:00        0.00
  RM-C25-04            JUNCTION  -nan(ind)     0.00    -0.15     0  00:00        0.00
  RM-C25-05            JUNCTION  -nan(ind)     0.00    -0.10     0  00:00        0.00
  RM-C25-06            JUNCTION  -nan(ind)     0.00    -0.05     0  00:00        0.00
  RM-C25-07            JUNCTION  -nan(ind)     0.00     0.01     0  00:00        0.00
  RM-C25-08            JUNCTION  -nan(ind)     0.00     0.05     0  00:00        0.00
  RM-C25-09            JUNCTION  -nan(ind)     0.00     0.10     0  00:00        0.00
  RM-C25-10            JUNCTION  -nan(ind)     0.00     0.60     0  00:00        0.00
  RM-C25-11            JUNCTION  -nan(ind)     0.00     0.70     0  00:00        0.00
  RM-C25-12            JUNCTION  -nan(ind)     0.00     0.70     0  00:00        0.00
  RM-C25-13            JUNCTION  -nan(ind)     0.00     0.80     0  00:00        0.00
  RM-C25-14            JUNCTION  -nan(ind)     0.00     0.90     0  00:00        0.00
  RM-C25-15            JUNCTION  -nan(ind)     0.00     1.40     0  00:00        0.00
  RM-C26-01            JUNCTION  -nan(ind)     0.00     5.18     0  00:00        0.00
  RM-C27-01            JUNCTION  -nan(ind)     0.00     2.48     0  00:00        0.00
  RM-C27-02            JUNCTION  -nan(ind)     0.00     2.50     0  00:00        0.00
  RM-C27-03            JUNCTION  -nan(ind)     0.00     2.50     0  00:00        0.00
  RM-C27-04            JUNCTION  -nan(ind)     0.00     3.00     0  00:00        0.00
  RM-C27-05            JUNCTION  -nan(ind)     0.00     3.20     0  00:00        0.00
  RM-C27-06            JUNCTION  -nan(ind)     0.00     3.20     0  00:00        0.00
  RM-C27-07            JUNCTION  -nan(ind)     0.00     3.20     0  00:00        0.00
  RM-C27-08            JUNCTION  -nan(ind)     0.00     3.70     0  00:00        0.00
  RM-C27-09            JUNCTION  -nan(ind)     0.00     2.70     0  00:00        0.00
  RM-C27-10            JUNCTION  -nan(ind)     0.00     2.20     0  00:00        0.00
  RM-C27-100           JUNCTION  -nan(ind)     0.00     2.30     0  00:00        0.00
  RM-C27-101           JUNCTION  -nan(ind)     0.00     1.30     0  00:00        0.00
  RM-C27-102           JUNCTION  -nan(ind)     0.00     1.30     0  00:00        0.00
  RM-C27-103           JUNCTION  -nan(ind)     0.00     1.60     0  00:00        0.00
  RM-C27-104           JUNCTION  -nan(ind)     0.00     1.30     0  00:00        0.00
  RM-C27-105           JUNCTION  -nan(ind)     0.00     1.30     0  00:00        0.00
  RM-C27-106           JUNCTION  -nan(ind)     0.00     1.30     0  00:00        0.00
  RM-C27-107           JUNCTION  -nan(ind)     0.00     1.30     0  00:00        0.00
  RM-C27-108           JUNCTION  -nan(ind)     0.00     0.30     0  00:00        0.00
  RM-C27-109           JUNCTION  -nan(ind)     0.00     0.30     0  00:00        0.00
  RM-C27-11            JUNCTION  -nan(ind)     0.00     2.20     0  00:00        0.00
  RM-C27-110           JUNCTION  -nan(ind)     0.00     0.30     0  00:00        0.00
  RM-C27-111           JUNCTION  -nan(ind)     0.00     0.30     0  00:00        0.00
  RM-C27-112           JUNCTION  -nan(ind)     0.00     1.50     0  00:00        0.00
  RM-C27-113           JUNCTION  -nan(ind)     0.00     8.23     0  00:00        0.00
  RM-C27-12            JUNCTION  -nan(ind)     0.00     1.70     0  00:00        0.00
  RM-C27-13            JUNCTION  -nan(ind)     0.00     2.20     0  00:00        0.00
  RM-C27-14            JUNCTION  -nan(ind)     0.00     2.04     0  00:00        0.00
  RM-C27-15            JUNCTION  -nan(ind)     0.00     2.08     0  00:00        0.00
  RM-C27-16            JUNCTION  -nan(ind)     0.00     2.40     0  00:00        0.00
  RM-C27-17            JUNCTION  -nan(ind)     0.00     2.40     0  00:00        0.00
  RM-C27-18            JUNCTION  -nan(ind)     0.00     2.50     0  00:00        0.00
  RM-C27-19            JUNCTION  -nan(ind)     0.00     3.10     0  00:00        0.00
  RM-C27-20            JUNCTION  -nan(ind)     0.00     3.30     0  00:00        0.00
  RM-C27-21            JUNCTION  -nan(ind)     0.00     3.30     0  00:00        0.00
  RM-C27-22            JUNCTION  -nan(ind)     0.00     3.30     0  00:00        0.00
  RM-C27-23            JUNCTION  -nan(ind)     0.00     4.15     0  00:00        0.00
  RM-C27-24            JUNCTION  -nan(ind)     0.00     5.30     0  00:00        0.00
  RM-C27-25            JUNCTION  -nan(ind)     0.00     9.00     0  00:00        0.00
  RM-C27-26            JUNCTION  -nan(ind)     0.00    15.10     0  00:00        0.00
  RM-C27-27            JUNCTION  -nan(ind)     0.00    11.70     0  00:00        0.00
  RM-C27-28            JUNCTION  -nan(ind)     0.00     7.80     0  00:00        0.00
  RM-C27-29            JUNCTION  -nan(ind)     0.00     2.00     0  00:00        0.00
  RM-C27-30            JUNCTION  -nan(ind)     0.00     2.30     0  00:00        0.00
  RM-C27-31            JUNCTION  -nan(ind)     0.00     2.00     0  00:00        0.00
  RM-C27-32            JUNCTION  -nan(ind)     0.00     5.25     0  00:00        0.00
  RM-C27-33            JUNCTION  -nan(ind)     0.00    11.60     0  00:00        0.00
  RM-C27-34            JUNCTION  -nan(ind)     0.00    12.30     0  00:00        0.00
  RM-C27-35            JUNCTION  -nan(ind)     0.00    11.75     0  00:00        0.00
  RM-C27-36            JUNCTION  -nan(ind)     0.00    10.65     0  00:00        0.00
[...]
  S017-00202ML1           1.00   -nan(ind)  -nan(ind)  -nan(ind)  -nan(ind)  -nan(ind)  -nan(ind)  -nan(ind)  -nan(ind)  -nan(ind)
  S017-00203ML1           1.00   -nan(ind)  -nan(ind)  -nan(ind)  -nan(ind)  -nan(ind)  -nan(ind)  -nan(ind)  -nan(ind)  -nan(ind)
  S017-00206ML1           1.00   -nan(ind)  -nan(ind)  -nan(ind)  -nan(ind)  -nan(ind)  -nan(ind)  -nan(ind)  -nan(ind)  -nan(ind)
  S017-00209ML1           2.69   -nan(ind)  -nan(ind)  -nan(ind)  -nan(ind)  -nan(ind)  -nan(ind)  -nan(ind)  -nan(ind)  -nan(ind)
  S017-00210ML1           1.00   -nan(ind)  -nan(ind)  -nan(ind)  -nan(ind)  -nan(ind)  -nan(ind)  -nan(ind)  -nan(ind)  -nan(ind)
  S017-00211ML1           1.00   -nan(ind)  -nan(ind)  -nan(ind)  -nan(ind)  -nan(ind)  -nan(ind)  -nan(ind)  -nan(ind)  -nan(ind)
  S017-00212ML1          22.93   -nan(ind)  -nan(ind)  -nan(ind)  -nan(ind)  -nan(ind)  -nan(ind)  -nan(ind)  -nan(ind)  -nan(ind)
  S017-00214ML1           1.42   -nan(ind)  -nan(ind)  -nan(ind)  -nan(ind)  -nan(ind)  -nan(ind)  -nan(ind)  -nan(ind)  -nan(ind)
  
  
  *************************
  Conduit Surcharge Summary
  *************************
  
  No conduits were surcharged.
  
  
  ***************
  Pumping Summary
  ***************
  
  ---------------------------------------------------------------------------------------------------------
                                                  Min       Avg       Max     Total     Power    % Time Off
                        Percent   Number of      Flow      Flow      Flow    Volume     Usage    Pump Curve
  Pump                 Utilized   Start-Ups       LPS       LPS       LPS  10^6 ltr     Kw-hr    Low   High
  ---------------------------------------------------------------------------------------------------------
  B01P1                -nan(ind)           0      0.00      0.00      0.00     0.000      0.00    0.0    0.0
  B02P1                -nan(ind)           0      0.00      0.00      0.00     0.000      0.00    0.0    0.0
  B02P2                -nan(ind)           0      0.00      0.00      0.00     0.000      0.00    0.0    0.0
  B03P1                -nan(ind)           0      0.00      0.00      0.00     0.000      0.00    0.0    0.0
  B03P2                -nan(ind)           0      0.00      0.00      0.00     0.000      0.00    0.0    0.0
  B04P1                -nan(ind)           0      0.00      0.00      0.00     0.000      0.00    0.0    0.0
  B04P2                -nan(ind)           0      0.00      0.00      0.00     0.000      0.00    0.0    0.0
  B05P1                -nan(ind)           0      0.00      0.00      0.00     0.000      0.00    0.0    0.0
  B05P2                -nan(ind)           0      0.00      0.00      0.00     0.000      0.00    0.0    0.0
  B06P1                -nan(ind)           0      0.00      0.00      0.00     0.000      0.00    0.0    0.0
  B06P2                -nan(ind)           0      0.00      0.00      0.00     0.000      0.00    0.0    0.0
  B07P1                -nan(ind)           0      0.00      0.00      0.00     0.000      0.00    0.0    0.0
  B07P2                -nan(ind)           0      0.00      0.00      0.00     0.000      0.00    0.0    0.0
  B08P1                -nan(ind)           0      0.00      0.00      0.00     0.000      0.00    0.0    0.0
  B08P2                -nan(ind)           0      0.00      0.00      0.00     0.000      0.00    0.0    0.0
  B09P1                -nan(ind)           0      0.00      0.00      0.00     0.000      0.00    0.0    0.0
  B09P2                -nan(ind)           0      0.00      0.00      0.00     0.000      0.00    0.0    0.0
  B10P1                -nan(ind)           0      0.00      0.00      0.00     0.000      0.00    0.0    0.0
  B10P2                -nan(ind)           0      0.00      0.00      0.00     0.000      0.00    0.0    0.0
  B11P1                -nan(ind)           0      0.00      0.00      0.00     0.000      0.00    0.0    0.0
  B12P1                -nan(ind)           0      0.00      0.00      0.00     0.000      0.00    0.0    0.0
  B13P1                -nan(ind)           0      0.00      0.00      0.00     0.000      0.00    0.0    0.0
  B14P1                -nan(ind)           0      0.00      0.00      0.00     0.000      0.00    0.0    0.0
  B14P2                -nan(ind)           0      0.00      0.00      0.00     0.000      0.00    0.0    0.0
  B15P1                -nan(ind)           0      0.00      0.00      0.00     0.000      0.00    0.0    0.0
  B15P2                -nan(ind)           0      0.00      0.00      0.00     0.000      0.00    0.0    0.0
  B16P1                -nan(ind)           0      0.00      0.00      0.00     0.000      0.00    0.0    0.0
  B16P2                -nan(ind)           0      0.00      0.00      0.00     0.000      0.00    0.0    0.0
  B17P1                -nan(ind)           0      0.00      0.00      0.00     0.000      0.00    0.0    0.0
  B17P2                -nan(ind)           0      0.00      0.00      0.00     0.000      0.00    0.0    0.0
  B18P1                -nan(ind)           0      0.00      0.00      0.00     0.000      0.00    0.0    0.0
  B18P2                -nan(ind)           0      0.00      0.00      0.00     0.000      0.00    0.0    0.0
  B19P1                -nan(ind)           0      0.00      0.00      0.00     0.000      0.00    0.0    0.0
  B19P2                -nan(ind)           0      0.00      0.00      0.00     0.000      0.00    0.0    0.0
  B20P1                -nan(ind)           0      0.00      0.00      0.00     0.000      0.00    0.0    0.0
  B20P2                -nan(ind)           0      0.00      0.00      0.00     0.000      0.00    0.0    0.0
  B21P1                -nan(ind)           0      0.00      0.00      0.00     0.000      0.00    0.0    0.0
  B21P2                -nan(ind)           0      0.00      0.00      0.00     0.000      0.00    0.0    0.0
  B24P1                -nan(ind)           0      0.00      0.00      0.00     0.000      0.00    0.0    0.0
  B25P1                -nan(ind)           0      0.00      0.00      0.00     0.000      0.00    0.0    0.0
  B25P2                -nan(ind)           0      0.00      0.00      0.00     0.000      0.00    0.0    0.0
  B26P1                -nan(ind)           0      0.00      0.00      0.00     0.000      0.00    0.0    0.0
  B29P1                -nan(ind)           0      0.00      0.00      0.00     0.000      0.00    0.0    0.0
  B29P2                -nan(ind)           0      0.00      0.00      0.00     0.000      0.00    0.0    0.0
  B30P1                -nan(ind)           0      0.00      0.00      0.00     0.000      0.00    0.0    0.0
  B30P2                -nan(ind)           0      0.00      0.00      0.00     0.000      0.00    0.0    0.0
  B31P1                -nan(ind)           0      0.00      0.00      0.00     0.000      0.00    0.0    0.0
  B31P2                -nan(ind)           0      0.00      0.00      0.00     0.000      0.00    0.0    0.0
  B32P1                -nan(ind)           0      0.00      0.00      0.00     0.000      0.00    0.0    0.0
  B32P2                -nan(ind)           0      0.00      0.00      0.00     0.000      0.00    0.0    0.0
  B33P1                -nan(ind)           0      0.00      0.00      0.00     0.000      0.00    0.0    0.0
  B34P1                -nan(ind)           0      0.00      0.00      0.00     0.000      0.00    0.0    0.0
  B38P1                -nan(ind)           0      0.00      0.00      0.00     0.000      0.00    0.0    0.0
  B38P2                -nan(ind)           0      0.00      0.00      0.00     0.000      0.00    0.0    0.0
  B39P1                -nan(ind)           0      0.00      0.00      0.00     0.000      0.00    0.0    0.0
  B39P2                -nan(ind)           0      0.00      0.00      0.00     0.000      0.00    0.0    0.0
  B40P1                -nan(ind)           0      0.00      0.00      0.00     0.000      0.00    0.0    0.0
  B41P1                -nan(ind)           0      0.00      0.00      0.00     0.000      0.00    0.0    0.0
  B41P2                -nan(ind)           0      0.00      0.00      0.00     0.000      0.00    0.0    0.0
  B45P1                -nan(ind)           0      0.00      0.00      0.00     0.000      0.00    0.0    0.0
  B47P1                -nan(ind)           0      0.00      0.00      0.00     0.000      0.00    0.0    0.0
  B47P2                -nan(ind)           0      0.00      0.00      0.00     0.000      0.00    0.0    0.0
  B48P1                -nan(ind)           0      0.00      0.00      0.00     0.000      0.00    0.0    0.0
  B48P2                -nan(ind)           0      0.00      0.00      0.00     0.000      0.00    0.0    0.0
  B49P1                -nan(ind)           0      0.00      0.00      0.00     0.000      0.00    0.0    0.0
  B49P2                -nan(ind)           0      0.00      0.00      0.00     0.000      0.00    0.0    0.0
  B49P3                -nan(ind)           0      0.00      0.00      0.00     0.000      0.00    0.0    0.0
  B49P4                -nan(ind)           0      0.00      0.00      0.00     0.000      0.00    0.0    0.0
  B50P1                -nan(ind)           0      0.00      0.00      0.00     0.000      0.00    0.0    0.0
  B50P2                -nan(ind)           0      0.00      0.00      0.00     0.000      0.00    0.0    0.0
  B51P1                -nan(ind)           0      0.00      0.00      0.00     0.000      0.00    0.0    0.0
  B51P2                -nan(ind)           0      0.00      0.00      0.00     0.000      0.00    0.0    0.0
  B52P1                -nan(ind)           0      0.00      0.00      0.00     0.000      0.00    0.0    0.0
  B52P2                -nan(ind)           0      0.00      0.00      0.00     0.000      0.00    0.0    0.0
  B53P1                -nan(ind)           0      0.00      0.00      0.00     0.000      0.00    0.0    0.0
  B53P2                -nan(ind)           0      0.00      0.00      0.00     0.000      0.00    0.0    0.0
  B54P1                -nan(ind)           0      0.00      0.00      0.00     0.000      0.00    0.0    0.0
  C01P1                -nan(ind)           0      0.00      0.00      0.00     0.000      0.00    0.0    0.0
  C01P2                -nan(ind)           0      0.00      0.00      0.00     0.000      0.00    0.0    0.0
  C02P1                -nan(ind)           0      0.00      0.00      0.00     0.000      0.00    0.0    0.0
  C02P2                -nan(ind)           0      0.00      0.00      0.00     0.000      0.00    0.0    0.0
  C03P1                -nan(ind)           0      0.00      0.00      0.00     0.000      0.00    0.0    0.0
  C03P2                -nan(ind)           0      0.00      0.00      0.00     0.000      0.00    0.0    0.0
  C04P1                -nan(ind)           0      0.00      0.00      0.00     0.000      0.00    0.0    0.0
  C04P2                -nan(ind)           0      0.00      0.00      0.00     0.000      0.00    0.0    0.0
  C05P1                -nan(ind)           0      0.00      0.00      0.00     0.000      0.00    0.0    0.0
  C05P2                -nan(ind)           0      0.00      0.00      0.00     0.000      0.00    0.0    0.0
  C06P1                -nan(ind)           0      0.00      0.00      0.00     0.000      0.00    0.0    0.0
  C06P2                -nan(ind)           0      0.00      0.00      0.00     0.000      0.00    0.0    0.0
  C07P1                -nan(ind)           0      0.00      0.00      0.00     0.000      0.00    0.0    0.0
  C07P2                -nan(ind)           0      0.00      0.00      0.00     0.000      0.00    0.0    0.0
  C08P1                -nan(ind)           0      0.00      0.00      0.00     0.000      0.00    0.0    0.0
  C08P2                -nan(ind)           0      0.00      0.00      0.00     0.000      0.00    0.0    0.0
  C09P1                -nan(ind)           0      0.00      0.00      0.00     0.000      0.00    0.0    0.0
  C09P2                -nan(ind)           0      0.00      0.00      0.00     0.000      0.00    0.0    0.0
  C10P1                -nan(ind)           0      0.00      0.00      0.00     0.000      0.00    0.0    0.0
  C10P2                -nan(ind)           0      0.00      0.00      0.00     0.000      0.00    0.0    0.0
  C11P1                -nan(ind)           0      0.00      0.00      0.00     0.000      0.00    0.0    0.0
  C11P2                -nan(ind)           0      0.00      0.00      0.00     0.000      0.00    0.0    0.0
  C12P1                -nan(ind)           0      0.00      0.00      0.00     0.000      0.00    0.0    0.0
  C12P2                -nan(ind)           0      0.00      0.00      0.00     0.000      0.00    0.0    0.0
  C13P1                -nan(ind)           0      0.00      0.00      0.00     0.000      0.00    0.0    0.0
  C13P2                -nan(ind)           0      0.00      0.00      0.00     0.000      0.00    0.0    0.0
  C14P1                -nan(ind)           0      0.00      0.00      0.00     0.000      0.00    0.0    0.0
  C14P2                -nan(ind)           0      0.00      0.00      0.00     0.000      0.00    0.0    0.0
  C15P1                -nan(ind)           0      0.00      0.00      0.00     0.000      0.00    0.0    0.0
  C15P2                -nan(ind)           0      0.00      0.00      0.00     0.000      0.00    0.0    0.0
  C16P1                -nan(ind)           0      0.00      0.00      0.00     0.000      0.00    0.0    0.0
  C16P2                -nan(ind)           0      0.00      0.00      0.00     0.000      0.00    0.0    0.0
  C17P1                -nan(ind)           0      0.00      0.00      0.00     0.000      0.00    0.0    0.0
  C17P2                -nan(ind)           0      0.00      0.00      0.00     0.000      0.00    0.0    0.0
  C20P1                -nan(ind)           0      0.00      0.00      0.00     0.000      0.00    0.0    0.0
  C20P2                -nan(ind)           0      0.00      0.00      0.00     0.000      0.00    0.0    0.0
  C21P1                -nan(ind)           0      0.00      0.00      0.00     0.000      0.00    0.0    0.0
  C21P2                -nan(ind)           0      0.00      0.00      0.00     0.000      0.00    0.0    0.0
  C22P1                -nan(ind)           0      0.00      0.00      0.00     0.000      0.00    0.0    0.0
  C22P2                -nan(ind)           0      0.00      0.00      0.00     0.000      0.00    0.0    0.0
  C24P1                -nan(ind)           0      0.00      0.00      0.00     0.000      0.00    0.0    0.0
  C24P2                -nan(ind)           0      0.00      0.00      0.00     0.000      0.00    0.0    0.0
  C25P1                -nan(ind)           0      0.00      0.00      0.00     0.000      0.00    0.0    0.0
  C25P2                -nan(ind)           0      0.00      0.00      0.00     0.000      0.00    0.0    0.0
  C26P1                -nan(ind)           0      0.00      0.00      0.00     0.000      0.00    0.0    0.0
  C26P2                -nan(ind)           0      0.00      0.00      0.00     0.000      0.00    0.0    0.0
  C27P1                -nan(ind)           0      0.00      0.00      0.00     0.000      0.00    0.0    0.0
  C27P2                -nan(ind)           0      0.00      0.00      0.00     0.000      0.00    0.0    0.0
  C28P1                -nan(ind)           0      0.00      0.00      0.00     0.000      0.00    0.0    0.0
  C28P2                -nan(ind)           0      0.00      0.00      0.00     0.000      0.00    0.0    0.0
  C29P1                -nan(ind)           0      0.00      0.00      0.00     0.000      0.00    0.0    0.0
  C30P1                -nan(ind)           0      0.00      0.00      0.00     0.000      0.00    0.0    0.0
  C30P2                -nan(ind)           0      0.00      0.00      0.00     0.000      0.00    0.0    0.0
  C31P1                -nan(ind)           0      0.00      0.00      0.00     0.000      0.00    0.0    0.0
  C31P2                -nan(ind)           0      0.00      0.00      0.00     0.000      0.00    0.0    0.0
  C32P1                -nan(ind)           0      0.00      0.00      0.00     0.000      0.00    0.0    0.0
  C32P2                -nan(ind)           0      0.00      0.00      0.00     0.000      0.00    0.0    0.0
  C33P1                -nan(ind)           0      0.00      0.00      0.00     0.000      0.00    0.0    0.0
  C33P2                -nan(ind)           0      0.00      0.00      0.00     0.000      0.00    0.0    0.0
  C34P1                -nan(ind)           0      0.00      0.00      0.00     0.000      0.00    0.0    0.0
  C34P2                -nan(ind)           0      0.00      0.00      0.00     0.000      0.00    0.0    0.0
  SS11P1               -nan(ind)           0      0.00      0.00      0.00     0.000      0.00    0.0    0.0
  SS11P2               -nan(ind)           0      0.00      0.00      0.00     0.000      0.00    0.0    0.0
  SS12P1               -nan(ind)           0      0.00      0.00      0.00     0.000      0.00    0.0    0.0
  SS12P2               -nan(ind)           0      0.00      0.00      0.00     0.000      0.00    0.0    0.0
  SS40P1               -nan(ind)           0      0.00      0.00      0.00     0.000      0.00    0.0    0.0
  SS40P2               -nan(ind)           0      0.00      0.00      0.00     0.000      0.00    0.0    0.0
  SS43P1               -nan(ind)           0      0.00      0.00      0.00     0.000      0.00    0.0    0.0
  SS43P2               -nan(ind)           0      0.00      0.00      0.00     0.000      0.00    0.0    0.0
  SS49P1               -nan(ind)           0      0.00      0.00      0.00     0.000      0.00    0.0    0.0
  SS49P2               -nan(ind)           0      0.00      0.00      0.00     0.000      0.00    0.0    0.0
  SS64P1               -nan(ind)           0      0.00      0.00      0.00     0.000      0.00    0.0    0.0
  SS64P2               -nan(ind)           0      0.00      0.00      0.00     0.000      0.00    0.0    0.0
  SS71P1               -nan(ind)           0      0.00      0.00      0.00     0.000      0.00    0.0    0.0
  TH01P1               -nan(ind)           0      0.00      0.00      0.00     0.000      0.00    0.0    0.0
  TH01P2               -nan(ind)           0      0.00      0.00      0.00     0.000      0.00    0.0    0.0
  TH02P1               -nan(ind)           0      0.00      0.00      0.00     0.000      0.00    0.0    0.0
  TH02P2               -nan(ind)           0      0.00      0.00      0.00     0.000      0.00    0.0    0.0
  TH03P1               -nan(ind)           0      0.00      0.00      0.00     0.000      0.00    0.0    0.0
  TH03P2               -nan(ind)           0      0.00      0.00      0.00     0.000      0.00    0.0    0.0
  TH04P1               -nan(ind)           0      0.00      0.00      0.00     0.000      0.00    0.0    0.0
  TH04P2               -nan(ind)           0      0.00      0.00      0.00     0.000      0.00    0.0    0.0
  TH05P1               -nan(ind)           0      0.00      0.00      0.00     0.000      0.00    0.0    0.0
  TH05P2               -nan(ind)           0      0.00      0.00      0.00     0.000      0.00    0.0    0.0
  TH06P1               -nan(ind)           0      0.00      0.00      0.00     0.000      0.00    0.0    0.0
  TH06P2               -nan(ind)           0      0.00      0.00      0.00     0.000      0.00    0.0    0.0
  TH07P1               -nan(ind)           0      0.00      0.00      0.00     0.000      0.00    0.0    0.0
  TH07P2               -nan(ind)           0      0.00      0.00      0.00     0.000      0.00    0.0    0.0
  

  Analysis begun on:  Sat Nov 30 08:11:13 2019
  Analysis ended on:  Sat Nov 30 08:11:13 2019
  Total elapsed time: < 1 sec