
  EPA STORM WATER MANAGEMENT MODEL - VERSION 5.1 (Build 5.1.013)
  --------------------------------------------------------------

  
  *********************************************************
  NOTE: The summary statistics displayed in this report are
  based on results found at every computational time step,  
  not just on results from each reporting time step.
  *********************************************************
  
  ****************
  Analysis Options
  ****************
  Flow Units ............... MGD
  Process Models:
    Rainfall/Runoff ........ YES
    RDII ................... NO
    Snowmelt ............... NO
    Groundwater ............ NO
    Flow Routing ........... YES
    Ponding Allowed ........ YES
    Water Quality .......... NO
  Infiltration Method ...... HORTON
  Flow Routing Method ...... DYNWAVE
  Surcharge Method ......... EXTRAN
  Starting Date ............ 12/15/2018 00:00:00
  Ending Date .............. 12/16/2018 00:00:00
  Antecedent Dry Days ...... 0.0
  Report Time Step ......... 00:15:00
  Wet Time Step ............ 00:05:00
  Dry Time Step ............ 01:00:00
  Routing Time Step ........ 30.00 sec
  Variable Time Step ....... YES
  Maximum Trials ........... 8
  Number of Threads ........ 1
  Head Tolerance ........... 0.005000 ft
  
  
  **************************        Volume         Depth
  Runoff Quantity Continuity     acre-feet        inches
  **************************     ---------       -------
  Total Precipitation ......         0.000         0.000
  Evaporation Loss .........         0.000         0.000
  Infiltration Loss ........         0.000         0.000
  Surface Runoff ...........         0.000         0.000
  Final Storage ............         0.000         0.000
  Continuity Error (%) .....         0.000
  
  
  **************************        Volume        Volume
  Flow Routing Continuity        acre-feet      10^6 gal
  **************************     ---------     ---------
  Dry Weather Inflow .......         0.000         0.000
  Wet Weather Inflow .......         0.000         0.000
  Groundwater Inflow .......         0.000         0.000
  RDII Inflow ..............         0.000         0.000
  External Inflow ..........         0.000         0.000
  External Outflow .........         0.000         0.000
  Flooding Loss ............         0.000         0.000
  Evaporation Loss .........         0.000         0.000
  Exfiltration Loss ........         0.000         0.000
  Initial Stored Volume ....         0.000         0.000
  Final Stored Volume ......         0.000         0.000
  Continuity Error (%) .....         0.000
  
  
  ***************************
  Time-Step Critical Elements
  ***************************
  None
  
  
  ********************************
  Highest Flow Instability Indexes
  ********************************
  All links are stable.
  
  
  ***************************
  Subcatchment Runoff Summary
  ***************************
  
  ------------------------------------------------------------------------------------------------------------------------------
                            Total      Total      Total      Total     Imperv       Perv      Total       Total     Peak  Runoff
                           Precip      Runon       Evap      Infil     Runoff     Runoff     Runoff      Runoff   Runoff   Coeff
  Subcatchment                 in         in         in         in         in         in         in    10^6 gal      MGD
  ------------------------------------------------------------------------------------------------------------------------------
  CM-1                       0.00       0.00       0.00       0.00       0.00       0.00       0.00        0.00     0.00   0.000
  CM-10                      0.00       0.00       0.00       0.00       0.00       0.00       0.00        0.00     0.00   0.000
  CM-100                     0.00       0.00       0.00       0.00       0.00       0.00       0.00        0.00     0.00   0.000
  CM-1000                    0.00       0.00       0.00       0.00       0.00       0.00       0.00        0.00     0.00   0.000
  CM-1001                    0.00       0.00       0.00       0.00       0.00       0.00       0.00        0.00     0.00   0.000
  CM-1002                    0.00       0.00       0.00       0.00       0.00       0.00       0.00        0.00     0.00   0.000
  CM-1003                    0.00       0.00       0.00       0.00       0.00       0.00       0.00        0.00     0.00   0.000
  CM-1004                    0.00       0.00       0.00       0.00       0.00       0.00       0.00        0.00     0.00   0.000
  CM-1005                    0.00       0.00       0.00       0.00       0.00       0.00       0.00        0.00     0.00   0.000
  CM-1006                    0.00       0.00       0.00       0.00       0.00       0.00       0.00        0.00     0.00   0.000
  CM-1007                    0.00       0.00       0.00       0.00       0.00       0.00       0.00        0.00     0.00   0.000
  CM-1008                    0.00       0.00       0.00       0.00       0.00       0.00       0.00        0.00     0.00   0.000
  CM-1009                    0.00       0.00       0.00       0.00       0.00       0.00       0.00        0.00     0.00   0.000
  CM-101                     0.00       0.00       0.00       0.00       0.00       0.00       0.00        0.00     0.00   0.000
  CM-1010                    0.00       0.00       0.00       0.00       0.00       0.00       0.00        0.00     0.00   0.000
  CM-1011                    0.00       0.00       0.00       0.00       0.00       0.00       0.00        0.00     0.00   0.000
  CM-1012                    0.00       0.00       0.00       0.00       0.00       0.00       0.00        0.00     0.00   0.000
  CM-1013                    0.00       0.00       0.00       0.00       0.00       0.00       0.00        0.00     0.00   0.000
  CM-1014                    0.00       0.00       0.00       0.00       0.00       0.00       0.00        0.00     0.00   0.000
  CM-1015                    0.00       0.00       0.00       0.00       0.00       0.00       0.00        0.00     0.00   0.000
  CM-1016                    0.00       0.00       0.00       0.00       0.00       0.00       0.00        0.00     0.00   0.000
  CM-1017                    0.00       0.00       0.00       0.00       0.00       0.00       0.00        0.00     0.00   0.000
  CM-1018                    0.00       0.00       0.00       0.00       0.00       0.00       0.00        0.00     0.00   0.000
  CM-1019                    0.00       0.00       0.00       0.00       0.00       0.00       0.00        0.00     0.00   0.000
  CM-102                     0.00       0.00       0.00       0.00       0.00       0.00       0.00        0.00     0.00   0.000
  CM-1020                    0.00       0.00       0.00       0.00       0.00       0.00       0.00        0.00     0.00   0.000
  CM-1021                    0.00       0.00       0.00       0.00       0.00       0.00       0.00        0.00     0.00   0.000
  CM-1022                    0.00       0.00       0.00       0.00       0.00       0.00       0.00        0.00     0.00   0.000
  CM-1023                    0.00       0.00       0.00       0.00       0.00       0.00       0.00        0.00     0.00   0.000
  CM-1024                    0.00       0.00       0.00       0.00       0.00       0.00       0.00        0.00     0.00   0.000
  CM-1025                    0.00       0.00       0.00       0.00       0.00       0.00       0.00        0.00     0.00   0.000
  CM-1026                    0.00       0.00       0.00       0.00       0.00       0.00       0.00        0.00     0.00   0.000
  CM-1027                    0.00       0.00       0.00       0.00       0.00       0.00       0.00        0.00     0.00   0.000
  CM-1028                    0.00       0.00       0.00       0.00       0.00       0.00       0.00        0.00     0.00   0.000
  CM-1029                    0.00       0.00       0.00       0.00       0.00       0.00       0.00        0.00     0.00   0.000
  CM-103                     0.00       0.00       0.00       0.00       0.00       0.00       0.00        0.00     0.00   0.000
  CM-1030                    0.00       0.00       0.00       0.00       0.00       0.00       0.00        0.00     0.00   0.000
  CM-1031                    0.00       0.00       0.00       0.00       0.00       0.00       0.00        0.00     0.00   0.000
  CM-1032                    0.00       0.00       0.00       0.00       0.00       0.00       0.00        0.00     0.00   0.000
  CM-1033                    0.00       0.00       0.00       0.00       0.00       0.00       0.00        0.00     0.00   0.000
  CM-1034                    0.00       0.00       0.00       0.00       0.00       0.00       0.00        0.00     0.00   0.000
  CM-1035                    0.00       0.00       0.00       0.00       0.00       0.00       0.00        0.00     0.00   0.000
  CM-1036                    0.00       0.00       0.00       0.00       0.00       0.00       0.00        0.00     0.00   0.000
  CM-1037                    0.00       0.00       0.00       0.00       0.00       0.00       0.00        0.00     0.00   0.000
  CM-1038                    0.00       0.00       0.00       0.00       0.00       0.00       0.00        0.00     0.00   0.000
  CM-1039                    0.00       0.00       0.00       0.00       0.00       0.00       0.00        0.00     0.00   0.000
  CM-104                     0.00       0.00       0.00       0.00       0.00       0.00       0.00        0.00     0.00   0.000
  CM-1040                    0.00       0.00       0.00       0.00       0.00       0.00       0.00        0.00     0.00   0.000
  CM-1041                    0.00       0.00       0.00       0.00       0.00       0.00       0.00        0.00     0.00   0.000
  CM-1042                    0.00       0.00       0.00       0.00       0.00       0.00       0.00        0.00     0.00   0.000
  CM-1043                    0.00       0.00       0.00       0.00       0.00       0.00       0.00        0.00     0.00   0.000
  CM-1044                    0.00       0.00       0.00       0.00       0.00       0.00       0.00        0.00     0.00   0.000
  CM-1045                    0.00       0.00       0.00       0.00       0.00       0.00       0.00        0.00     0.00   0.000
  CM-1046                    0.00       0.00       0.00       0.00       0.00       0.00       0.00        0.00     0.00   0.000
  CM-1047                    0.00       0.00       0.00       0.00       0.00       0.00       0.00        0.00     0.00   0.000
  CM-1048                    0.00       0.00       0.00       0.00       0.00       0.00       0.00        0.00     0.00   0.000
  CM-1049                    0.00       0.00       0.00       0.00       0.00       0.00       0.00        0.00     0.00   0.000
  CM-105                     0.00       0.00       0.00       0.00       0.00       0.00       0.00        0.00     0.00   0.000
  CM-1050                    0.00       0.00       0.00       0.00       0.00       0.00       0.00        0.00     0.00   0.000
  CM-1051                    0.00       0.00       0.00       0.00       0.00       0.00       0.00        0.00     0.00   0.000
  CM-1052                    0.00       0.00       0.00       0.00       0.00       0.00       0.00        0.00     0.00   0.000
  CM-1053                    0.00       0.00       0.00       0.00       0.00       0.00       0.00        0.00     0.00   0.000
  CM-1054                    0.00       0.00       0.00       0.00       0.00       0.00       0.00        0.00     0.00   0.000
  CM-1055                    0.00       0.00       0.00       0.00       0.00       0.00       0.00        0.00     0.00   0.000
  CM-1056                    0.00       0.00       0.00       0.00       0.00       0.00       0.00        0.00     0.00   0.000
  CM-1057                    0.00       0.00       0.00       0.00       0.00       0.00       0.00        0.00     0.00   0.000
  CM-1058                    0.00       0.00       0.00       0.00       0.00       0.00       0.00        0.00     0.00   0.000
  CM-1059                    0.00       0.00       0.00       0.00       0.00       0.00       0.00        0.00     0.00   0.000
  CM-106                     0.00       0.00       0.00       0.00       0.00       0.00       0.00        0.00     0.00   0.000
  CM-1060                    0.00       0.00       0.00       0.00       0.00       0.00       0.00        0.00     0.00   0.000
  CM-1061                    0.00       0.00       0.00       0.00       0.00       0.00       0.00        0.00     0.00   0.000
  CM-1062                    0.00       0.00       0.00       0.00       0.00       0.00       0.00        0.00     0.00   0.000
  CM-1063                    0.00       0.00       0.00       0.00       0.00       0.00       0.00        0.00     0.00   0.000
  CM-1064                    0.00       0.00       0.00       0.00       0.00       0.00       0.00        0.00     0.00   0.000
  CM-1065                    0.00       0.00       0.00       0.00       0.00       0.00       0.00        0.00     0.00   0.000
  CM-1066                    0.00       0.00       0.00       0.00       0.00       0.00       0.00        0.00     0.00   0.000
  CM-1067                    0.00       0.00       0.00       0.00       0.00       0.00       0.00        0.00     0.00   0.000
  CM-1068                    0.00       0.00       0.00       0.00       0.00       0.00       0.00        0.00     0.00   0.000
  CM-1069                    0.00       0.00       0.00       0.00       0.00       0.00       0.00        0.00     0.00   0.000
  CM-107                     0.00       0.00       0.00       0.00       0.00       0.00       0.00        0.00     0.00   0.000
  CM-1070                    0.00       0.00       0.00       0.00       0.00       0.00       0.00        0.00     0.00   0.000
  CM-1071                    0.00       0.00       0.00       0.00       0.00       0.00       0.00        0.00     0.00   0.000
  CM-1072                    0.00       0.00       0.00       0.00       0.00       0.00       0.00        0.00     0.00   0.000
  CM-1073                    0.00       0.00       0.00       0.00       0.00       0.00       0.00        0.00     0.00   0.000
  CM-1074                    0.00       0.00       0.00       0.00       0.00       0.00       0.00        0.00     0.00   0.000
  CM-1075                    0.00       0.00       0.00       0.00       0.00       0.00       0.00        0.00     0.00   0.000
  CM-1076                    0.00       0.00       0.00       0.00       0.00       0.00       0.00        0.00     0.00   0.000
  CM-1077                    0.00       0.00       0.00       0.00       0.00       0.00       0.00        0.00     0.00   0.000
  CM-1078                    0.00       0.00       0.00       0.00       0.00       0.00       0.00        0.00     0.00   0.000
  CM-1079                    0.00       0.00       0.00       0.00       0.00       0.00       0.00        0.00     0.00   0.000
  CM-108                     0.00       0.00       0.00       0.00       0.00       0.00       0.00        0.00     0.00   0.000
  CM-1080                    0.00       0.00       0.00       0.00       0.00       0.00       0.00        0.00     0.00   0.000
  CM-1081                    0.00       0.00       0.00       0.00       0.00       0.00       0.00        0.00     0.00   0.000
  CM-1082                    0.00       0.00       0.00       0.00       0.00       0.00       0.00        0.00     0.00   0.000
  CM-1083                    0.00       0.00       0.00       0.00       0.00       0.00       0.00        0.00     0.00   0.000
  CM-1084                    0.00       0.00       0.00       0.00       0.00       0.00       0.00        0.00     0.00   0.000
  CM-1085                    0.00       0.00       0.00       0.00       0.00       0.00       0.00        0.00     0.00   0.000
  CM-1086                    0.00       0.00       0.00       0.00       0.00       0.00       0.00        0.00     0.00   0.000
  CM-1087                    0.00       0.00       0.00       0.00       0.00       0.00       0.00        0.00     0.00   0.000
  CM-1088                    0.00       0.00       0.00       0.00       0.00       0.00       0.00        0.00     0.00   0.000
  CM-1089                    0.00       0.00       0.00       0.00       0.00       0.00       0.00        0.00     0.00   0.000
  CM-109                     0.00       0.00       0.00       0.00       0.00       0.00       0.00        0.00     0.00   0.000
  CM-1090                    0.00       0.00       0.00       0.00       0.00       0.00       0.00        0.00     0.00   0.000
  CM-1091                    0.00       0.00       0.00       0.00       0.00       0.00       0.00        0.00     0.00   0.000
  CM-1092                    0.00       0.00       0.00       0.00       0.00       0.00       0.00        0.00     0.00   0.000
  CM-1093                    0.00       0.00       0.00       0.00       0.00       0.00       0.00        0.00     0.00   0.000
  CM-1094                    0.00       0.00       0.00       0.00       0.00       0.00       0.00        0.00     0.00   0.000
  CM-1095                    0.00       0.00       0.00       0.00       0.00       0.00       0.00        0.00     0.00   0.000
  CM-1096                    0.00       0.00       0.00       0.00       0.00       0.00       0.00        0.00     0.00   0.000
  CM-1097                    0.00       0.00       0.00       0.00       0.00       0.00       0.00        0.00     0.00   0.000
  CM-1098                    0.00       0.00       0.00       0.00       0.00       0.00       0.00        0.00     0.00   0.000
  CM-1099                    0.00       0.00       0.00       0.00       0.00       0.00       0.00        0.00     0.00   0.000
  CM-11                      0.00       0.00       0.00       0.00       0.00       0.00       0.00        0.00     0.00   0.000
  CM-110                     0.00       0.00       0.00       0.00       0.00       0.00       0.00        0.00     0.00   0.000
  CM-1100                    0.00       0.00       0.00       0.00       0.00       0.00       0.00        0.00     0.00   0.000
  CM-1101                    0.00       0.00       0.00       0.00       0.00       0.00       0.00        0.00     0.00   0.000
  CM-1102                    0.00       0.00       0.00       0.00       0.00       0.00       0.00        0.00     0.00   0.000
  CM-1103                    0.00       0.00       0.00       0.00       0.00       0.00       0.00        0.00     0.00   0.000
  CM-1104                    0.00       0.00       0.00       0.00       0.00       0.00       0.00        0.00     0.00   0.000
  CM-1105                    0.00       0.00       0.00       0.00       0.00       0.00       0.00        0.00     0.00   0.000
  CM-1106                    0.00       0.00       0.00       0.00       0.00       0.00       0.00        0.00     0.00   0.000
  CM-1107                    0.00       0.00       0.00       0.00       0.00       0.00       0.00        0.00     0.00   0.000
  CM-1108                    0.00       0.00       0.00       0.00       0.00       0.00       0.00        0.00     0.00   0.000
  CM-1109                    0.00       0.00       0.00       0.00       0.00       0.00       0.00        0.00     0.00   0.000
  CM-111                     0.00       0.00       0.00       0.00       0.00       0.00       0.00        0.00     0.00   0.000
  CM-1110                    0.00       0.00       0.00       0.00       0.00       0.00       0.00        0.00     0.00   0.000
  CM-1111                    0.00       0.00       0.00       0.00       0.00       0.00       0.00        0.00     0.00   0.000
  CM-1112                    0.00       0.00       0.00       0.00       0.00       0.00       0.00        0.00     0.00   0.000
  CM-1113                    0.00       0.00       0.00       0.00       0.00       0.00       0.00        0.00     0.00   0.000
  CM-1114                    0.00       0.00       0.00       0.00       0.00       0.00       0.00        0.00     0.00   0.000
  CM-1115                    0.00       0.00       0.00       0.00       0.00       0.00       0.00        0.00     0.00   0.000
  CM-1116                    0.00       0.00       0.00       0.00       0.00       0.00       0.00        0.00     0.00   0.000
  CM-1117                    0.00       0.00       0.00       0.00       0.00       0.00       0.00        0.00     0.00   0.000
  CM-1118                    0.00       0.00       0.00       0.00       0.00       0.00       0.00        0.00     0.00   0.000
  CM-1119                    0.00       0.00       0.00       0.00       0.00       0.00       0.00        0.00     0.00   0.000
  CM-112                     0.00       0.00       0.00       0.00       0.00       0.00       0.00        0.00     0.00   0.000
  CM-1120                    0.00       0.00       0.00       0.00       0.00       0.00       0.00        0.00     0.00   0.000
  CM-1121                    0.00       0.00       0.00       0.00       0.00       0.00       0.00        0.00     0.00   0.000
  CM-1122                    0.00       0.00       0.00       0.00       0.00       0.00       0.00        0.00     0.00   0.000
  CM-1123                    0.00       0.00       0.00       0.00       0.00       0.00       0.00        0.00     0.00   0.000
  CM-1124                    0.00       0.00       0.00       0.00       0.00       0.00       0.00        0.00     0.00   0.000
  CM-1125                    0.00       0.00       0.00       0.00       0.00       0.00       0.00        0.00     0.00   0.000
  CM-1126                    0.00       0.00       0.00       0.00       0.00       0.00       0.00        0.00     0.00   0.000
  CM-1127                    0.00       0.00       0.00       0.00       0.00       0.00       0.00        0.00     0.00   0.000
  CM-1128                    0.00       0.00       0.00       0.00       0.00       0.00       0.00        0.00     0.00   0.000
  CM-1129                    0.00       0.00       0.00       0.00       0.00       0.00       0.00        0.00     0.00   0.000
  CM-113                     0.00       0.00       0.00       0.00       0.00       0.00       0.00        0.00     0.00   0.000
  CM-1130                    0.00       0.00       0.00       0.00       0.00       0.00       0.00        0.00     0.00   0.000
  CM-1131                    0.00       0.00       0.00       0.00       0.00       0.00       0.00        0.00     0.00   0.000
  CM-1132                    0.00       0.00       0.00       0.00       0.00       0.00       0.00        0.00     0.00   0.000
  CM-1133                    0.00       0.00       0.00       0.00       0.00       0.00       0.00        0.00     0.00   0.000
  CM-1134                    0.00       0.00       0.00       0.00       0.00       0.00       0.00        0.00     0.00   0.000
  CM-1135                    0.00       0.00       0.00       0.00       0.00       0.00       0.00        0.00     0.00   0.000
  CM-1136                    0.00       0.00       0.00       0.00       0.00       0.00       0.00        0.00     0.00   0.000
  CM-1137                    0.00       0.00       0.00       0.00       0.00       0.00       0.00        0.00     0.00   0.000
  CM-1138                    0.00       0.00       0.00       0.00       0.00       0.00       0.00        0.00     0.00   0.000
  CM-1139                    0.00       0.00       0.00       0.00       0.00       0.00       0.00        0.00     0.00   0.000
  CM-114                     0.00       0.00       0.00       0.00       0.00       0.00       0.00        0.00     0.00   0.000
  CM-1140                    0.00       0.00       0.00       0.00       0.00       0.00       0.00        0.00     0.00   0.000
  CM-1141                    0.00       0.00       0.00       0.00       0.00       0.00       0.00        0.00     0.00   0.000
  CM-1142                    0.00       0.00       0.00       0.00       0.00       0.00       0.00        0.00     0.00   0.000
  CM-1143                    0.00       0.00       0.00       0.00       0.00       0.00       0.00        0.00     0.00   0.000
  CM-1144                    0.00       0.00       0.00       0.00       0.00       0.00       0.00        0.00     0.00   0.000
  CM-1145                    0.00       0.00       0.00       0.00       0.00       0.00       0.00        0.00     0.00   0.000
  CM-1146                    0.00       0.00       0.00       0.00       0.00       0.00       0.00        0.00     0.00   0.000
  CM-1147                    0.00       0.00       0.00       0.00       0.00       0.00       0.00        0.00     0.00   0.000
  CM-1148                    0.00       0.00       0.00       0.00       0.00       0.00       0.00        0.00     0.00   0.000
  CM-1149                    0.00       0.00       0.00       0.00       0.00       0.00       0.00        0.00     0.00   0.000
  CM-115                     0.00       0.00       0.00       0.00       0.00       0.00       0.00        0.00     0.00   0.000
  CM-1150                    0.00       0.00       0.00       0.00       0.00       0.00       0.00        0.00     0.00   0.000
  CM-1151                    0.00       0.00       0.00       0.00       0.00       0.00       0.00        0.00     0.00   0.000
  CM-1152                    0.00       0.00       0.00       0.00       0.00       0.00       0.00        0.00     0.00   0.000
  CM-1153                    0.00       0.00       0.00       0.00       0.00       0.00       0.00        0.00     0.00   0.000
  CM-1154                    0.00       0.00       0.00       0.00       0.00       0.00       0.00        0.00     0.00   0.000
  CM-1155                    0.00       0.00       0.00       0.00       0.00       0.00       0.00        0.00     0.00   0.000
  CM-1156                    0.00       0.00       0.00       0.00       0.00       0.00       0.00        0.00     0.00   0.000
  CM-1157                    0.00       0.00       0.00       0.00       0.00       0.00       0.00        0.00     0.00   0.000
  CM-1158                    0.00       0.00       0.00       0.00       0.00       0.00       0.00        0.00     0.00   0.000
  CM-1159                    0.00       0.00       0.00       0.00       0.00       0.00       0.00        0.00     0.00   0.000
  CM-116                     0.00       0.00       0.00       0.00       0.00       0.00       0.00        0.00     0.00   0.000
  CM-1160                    0.00       0.00       0.00       0.00       0.00       0.00       0.00        0.00     0.00   0.000
  CM-1161                    0.00       0.00       0.00       0.00       0.00       0.00       0.00        0.00     0.00   0.000
  CM-1162                    0.00       0.00       0.00       0.00       0.00       0.00       0.00        0.00     0.00   0.000
  CM-1163                    0.00       0.00       0.00       0.00       0.00       0.00       0.00        0.00     0.00   0.000
  CM-1164                    0.00       0.00       0.00       0.00       0.00       0.00       0.00        0.00     0.00   0.000
  CM-1165                    0.00       0.00       0.00       0.00       0.00       0.00       0.00        0.00     0.00   0.000
  CM-1166                    0.00       0.00       0.00       0.00       0.00       0.00       0.00        0.00     0.00   0.000
  CM-1167                    0.00       0.00       0.00       0.00       0.00       0.00       0.00        0.00     0.00   0.000
  CM-1168                    0.00       0.00       0.00       0.00       0.00       0.00       0.00        0.00     0.00   0.000
  CM-1169                    0.00       0.00       0.00       0.00       0.00       0.00       0.00        0.00     0.00   0.000
  CM-117                     0.00       0.00       0.00       0.00       0.00       0.00       0.00        0.00     0.00   0.000
  CM-1170                    0.00       0.00       0.00       0.00       0.00       0.00       0.00        0.00     0.00   0.000
  CM-1171                    0.00       0.00       0.00       0.00       0.00       0.00       0.00        0.00     0.00   0.000
  CM-1172                    0.00       0.00       0.00       0.00       0.00       0.00       0.00        0.00     0.00   0.000
  CM-1173                    0.00       0.00       0.00       0.00       0.00       0.00       0.00        0.00     0.00   0.000
  CM-1174                    0.00       0.00       0.00       0.00       0.00       0.00       0.00        0.00     0.00   0.000
  CM-1175                    0.00       0.00       0.00       0.00       0.00       0.00       0.00        0.00     0.00   0.000
  CM-1176                    0.00       0.00       0.00       0.00       0.00       0.00       0.00        0.00     0.00   0.000
  CM-1177                    0.00       0.00       0.00       0.00       0.00       0.00       0.00        0.00     0.00   0.000
  CM-1178                    0.00       0.00       0.00       0.00       0.00       0.00       0.00        0.00     0.00   0.000
  CM-1179                    0.00       0.00       0.00       0.00       0.00       0.00       0.00        0.00     0.00   0.000
  CM-118                     0.00       0.00       0.00       0.00       0.00       0.00       0.00        0.00     0.00   0.000
  CM-1180                    0.00       0.00       0.00       0.00       0.00       0.00       0.00        0.00     0.00   0.000
  CM-1181                    0.00       0.00       0.00       0.00       0.00       0.00       0.00        0.00     0.00   0.000
  CM-1182                    0.00       0.00       0.00       0.00       0.00       0.00       0.00        0.00     0.00   0.000
  CM-1183                    0.00       0.00       0.00       0.00       0.00       0.00       0.00        0.00     0.00   0.000
  CM-1184                    0.00       0.00       0.00       0.00       0.00       0.00       0.00        0.00     0.00   0.000
  CM-1185                    0.00       0.00       0.00       0.00       0.00       0.00       0.00        0.00     0.00   0.000
  CM-1186                    0.00       0.00       0.00       0.00       0.00       0.00       0.00        0.00     0.00   0.000
  CM-1187                    0.00       0.00       0.00       0.00       0.00       0.00       0.00        0.00     0.00   0.000
  CM-1188                    0.00       0.00       0.00       0.00       0.00       0.00       0.00        0.00     0.00   0.000
  CM-1189                    0.00       0.00       0.00       0.00       0.00       0.00       0.00        0.00     0.00   0.000
  CM-119                     0.00       0.00       0.00       0.00       0.00       0.00       0.00        0.00     0.00   0.000
  CM-1190                    0.00       0.00       0.00       0.00       0.00       0.00       0.00        0.00     0.00   0.000
  CM-1191                    0.00       0.00       0.00       0.00       0.00       0.00       0.00        0.00     0.00   0.000
  CM-1192                    0.00       0.00       0.00       0.00       0.00       0.00       0.00        0.00     0.00   0.000
  CM-1193                    0.00       0.00       0.00       0.00       0.00       0.00       0.00        0.00     0.00   0.000
  CM-1194                    0.00       0.00       0.00       0.00       0.00       0.00       0.00        0.00     0.00   0.000
  CM-1195                    0.00       0.00       0.00       0.00       0.00       0.00       0.00        0.00     0.00   0.000
  CM-1196                    0.00       0.00       0.00       0.00       0.00       0.00       0.00        0.00     0.00   0.000
  CM-1197                    0.00       0.00       0.00       0.00       0.00       0.00       0.00        0.00     0.00   0.000
  CM-1198                    0.00       0.00       0.00       0.00       0.00       0.00       0.00        0.00     0.00   0.000
  CM-1199                    0.00       0.00       0.00       0.00       0.00       0.00       0.00        0.00     0.00   0.000
  CM-12                      0.00       0.00       0.00       0.00       0.00       0.00       0.00        0.00     0.00   0.000
  CM-120                     0.00       0.00       0.00       0.00       0.00       0.00       0.00        0.00     0.00   0.000
  CM-1200                    0.00       0.00       0.00       0.00       0.00       0.00       0.00        0.00     0.00   0.000
  CM-1201                    0.00       0.00       0.00       0.00       0.00       0.00       0.00        0.00     0.00   0.000
  CM-1202                    0.00       0.00       0.00       0.00       0.00       0.00       0.00        0.00     0.00   0.000
  CM-1203                    0.00       0.00       0.00       0.00       0.00       0.00       0.00        0.00     0.00   0.000
  CM-1204                    0.00       0.00       0.00       0.00       0.00       0.00       0.00        0.00     0.00   0.000
  CM-1205                    0.00       0.00       0.00       0.00       0.00       0.00       0.00        0.00     0.00   0.000
  CM-1206                    0.00       0.00       0.00       0.00       0.00       0.00       0.00        0.00     0.00   0.000
  CM-1207                    0.00       0.00       0.00       0.00       0.00       0.00       0.00        0.00     0.00   0.000
  CM-1208                    0.00       0.00       0.00       0.00       0.00       0.00       0.00        0.00     0.00   0.000
  CM-1209                    0.00       0.00       0.00       0.00       0.00       0.00       0.00        0.00     0.00   0.000
  CM-121                     0.00       0.00       0.00       0.00       0.00       0.00       0.00        0.00     0.00   0.000
  CM-1210                    0.00       0.00       0.00       0.00       0.00       0.00       0.00        0.00     0.00   0.000
  CM-1211                    0.00       0.00       0.00       0.00       0.00       0.00       0.00        0.00     0.00   0.000
  CM-1212                    0.00       0.00       0.00       0.00       0.00       0.00       0.00        0.00     0.00   0.000
  CM-1213                    0.00       0.00       0.00       0.00       0.00       0.00       0.00        0.00     0.00   0.000
  CM-1214                    0.00       0.00       0.00       0.00       0.00       0.00       0.00        0.00     0.00   0.000
  CM-1215                    0.00       0.00       0.00       0.00       0.00       0.00       0.00        0.00     0.00   0.000
  CM-1216                    0.00       0.00       0.00       0.00       0.00       0.00       0.00        0.00     0.00   0.000
  CM-1217                    0.00       0.00       0.00       0.00       0.00       0.00       0.00        0.00     0.00   0.000
  CM-1218                    0.00       0.00       0.00       0.00       0.00       0.00       0.00        0.00     0.00   0.000
  CM-1219                    0.00       0.00       0.00       0.00       0.00       0.00       0.00        0.00     0.00   0.000
  CM-122                     0.00       0.00       0.00       0.00       0.00       0.00       0.00        0.00     0.00   0.000
  CM-1220                    0.00       0.00       0.00       0.00       0.00       0.00       0.00        0.00     0.00   0.000
  CM-1221                    0.00       0.00       0.00       0.00       0.00       0.00       0.00        0.00     0.00   0.000
  CM-1222                    0.00       0.00       0.00       0.00       0.00       0.00       0.00        0.00     0.00   0.000
  CM-1223                    0.00       0.00       0.00       0.00       0.00       0.00       0.00        0.00     0.00   0.000
  CM-1224                    0.00       0.00       0.00       0.00       0.00       0.00       0.00        0.00     0.00   0.000
  CM-1225                    0.00       0.00       0.00       0.00       0.00       0.00       0.00        0.00     0.00   0.000
  CM-1226                    0.00       0.00       0.00       0.00       0.00       0.00       0.00        0.00     0.00   0.000
  CM-1227                    0.00       0.00       0.00       0.00       0.00       0.00       0.00        0.00     0.00   0.000
  CM-1228                    0.00       0.00       0.00       0.00       0.00       0.00       0.00        0.00     0.00   0.000
  CM-1229                    0.00       0.00       0.00       0.00       0.00       0.00       0.00        0.00     0.00   0.000
  CM-123                     0.00       0.00       0.00       0.00       0.00       0.00       0.00        0.00     0.00   0.000
  CM-1230                    0.00       0.00       0.00       0.00       0.00       0.00       0.00        0.00     0.00   0.000
  CM-1231                    0.00       0.00       0.00       0.00       0.00       0.00       0.00        0.00     0.00   0.000
  CM-1232                    0.00       0.00       0.00       0.00       0.00       0.00       0.00        0.00     0.00   0.000
  CM-1233                    0.00       0.00       0.00       0.00       0.00       0.00       0.00        0.00     0.00   0.000
  CM-1234                    0.00       0.00       0.00       0.00       0.00       0.00       0.00        0.00     0.00   0.000
  CM-1235                    0.00       0.00       0.00       0.00       0.00       0.00       0.00        0.00     0.00   0.000
  CM-1236                    0.00       0.00       0.00       0.00       0.00       0.00       0.00        0.00     0.00   0.000
  CM-1237                    0.00       0.00       0.00       0.00       0.00       0.00       0.00        0.00     0.00   0.000
  CM-1238                    0.00       0.00       0.00       0.00       0.00       0.00       0.00        0.00     0.00   0.000
  CM-1239                    0.00       0.00       0.00       0.00       0.00       0.00       0.00        0.00     0.00   0.000
  CM-124                     0.00       0.00       0.00       0.00       0.00       0.00       0.00        0.00     0.00   0.000
  CM-1240                    0.00       0.00       0.00       0.00       0.00       0.00       0.00        0.00     0.00   0.000
  CM-1241                    0.00       0.00       0.00       0.00       0.00       0.00       0.00        0.00     0.00   0.000
  CM-1242                    0.00       0.00       0.00       0.00       0.00       0.00       0.00        0.00     0.00   0.000
  CM-1243                    0.00       0.00       0.00       0.00       0.00       0.00       0.00        0.00     0.00   0.000
  CM-1244                    0.00       0.00       0.00       0.00       0.00       0.00       0.00        0.00     0.00   0.000
  CM-1245                    0.00       0.00       0.00       0.00       0.00       0.00       0.00        0.00     0.00   0.000
  CM-1246                    0.00       0.00       0.00       0.00       0.00       0.00       0.00        0.00     0.00   0.000
  CM-1247                    0.00       0.00       0.00       0.00       0.00       0.00       0.00        0.00     0.00   0.000
  CM-1248                    0.00       0.00       0.00       0.00       0.00       0.00       0.00        0.00     0.00   0.000
  CM-1249                    0.00       0.00       0.00       0.00       0.00       0.00       0.00        0.00     0.00   0.000
  CM-125                     0.00       0.00       0.00       0.00       0.00       0.00       0.00        0.00     0.00   0.000
  CM-1250                    0.00       0.00       0.00       0.00       0.00       0.00       0.00        0.00     0.00   0.000
  CM-1251                    0.00       0.00       0.00       0.00       0.00       0.00       0.00        0.00     0.00   0.000
  CM-1252                    0.00       0.00       0.00       0.00       0.00       0.00       0.00        0.00     0.00   0.000
  CM-1253                    0.00       0.00       0.00       0.00       0.00       0.00       0.00        0.00     0.00   0.000
  CM-1254                    0.00       0.00       0.00       0.00       0.00       0.00       0.00        0.00     0.00   0.000
  CM-1255                    0.00       0.00       0.00       0.00       0.00       0.00       0.00        0.00     0.00   0.000
  CM-1256                    0.00       0.00       0.00       0.00       0.00       0.00       0.00        0.00     0.00   0.000
  CM-1257                    0.00       0.00       0.00       0.00       0.00       0.00       0.00        0.00     0.00   0.000
  CM-1258                    0.00       0.00       0.00       0.00       0.00       0.00       0.00        0.00     0.00   0.000
  CM-1259                    0.00       0.00       0.00       0.00       0.00       0.00       0.00        0.00     0.00   0.000
  CM-126                     0.00       0.00       0.00       0.00       0.00       0.00       0.00        0.00     0.00   0.000
  CM-1260                    0.00       0.00       0.00       0.00       0.00       0.00       0.00        0.00     0.00   0.000
  CM-1261                    0.00       0.00       0.00       0.00       0.00       0.00       0.00        0.00     0.00   0.000
  CM-1262                    0.00       0.00       0.00       0.00       0.00       0.00       0.00        0.00     0.00   0.000
  CM-1263                    0.00       0.00       0.00       0.00       0.00       0.00       0.00        0.00     0.00   0.000
  CM-1264                    0.00       0.00       0.00       0.00       0.00       0.00       0.00        0.00     0.00   0.000
  CM-1265                    0.00       0.00       0.00       0.00       0.00       0.00       0.00        0.00     0.00   0.000
  CM-1266                    0.00       0.00       0.00       0.00       0.00       0.00       0.00        0.00     0.00   0.000
  CM-1267                    0.00       0.00       0.00       0.00       0.00       0.00       0.00        0.00     0.00   0.000
  CM-1268                    0.00       0.00       0.00       0.00       0.00       0.00       0.00        0.00     0.00   0.000
  CM-1269                    0.00       0.00       0.00       0.00       0.00       0.00       0.00        0.00     0.00   0.000
  CM-127                     0.00       0.00       0.00       0.00       0.00       0.00       0.00        0.00     0.00   0.000
  CM-1270                    0.00       0.00       0.00       0.00       0.00       0.00       0.00        0.00     0.00   0.000
  CM-1271                    0.00       0.00       0.00       0.00       0.00       0.00       0.00        0.00     0.00   0.000
  CM-1272                    0.00       0.00       0.00       0.00       0.00       0.00       0.00        0.00     0.00   0.000
  CM-1273                    0.00       0.00       0.00       0.00       0.00       0.00       0.00        0.00     0.00   0.000
  CM-1274                    0.00       0.00       0.00       0.00       0.00       0.00       0.00        0.00     0.00   0.000
  CM-1275                    0.00       0.00       0.00       0.00       0.00       0.00       0.00        0.00     0.00   0.000
  CM-1276                    0.00       0.00       0.00       0.00       0.00       0.00       0.00        0.00     0.00   0.000
  CM-1277                    0.00       0.00       0.00       0.00       0.00       0.00       0.00        0.00     0.00   0.000
  CM-1278                    0.00       0.00       0.00       0.00       0.00       0.00       0.00        0.00     0.00   0.000
  CM-1279                    0.00       0.00       0.00       0.00       0.00       0.00       0.00        0.00     0.00   0.000
  CM-128                     0.00       0.00       0.00       0.00       0.00       0.00       0.00        0.00     0.00   0.000
  CM-1280                    0.00       0.00       0.00       0.00       0.00       0.00       0.00        0.00     0.00   0.000
  CM-1281                    0.00       0.00       0.00       0.00       0.00       0.00       0.00        0.00     0.00   0.000
  CM-1282                    0.00       0.00       0.00       0.00       0.00       0.00       0.00        0.00     0.00   0.000
  CM-1283                    0.00       0.00       0.00       0.00       0.00       0.00       0.00        0.00     0.00   0.000
  CM-1284                    0.00       0.00       0.00       0.00       0.00       0.00       0.00        0.00     0.00   0.000
  CM-1285                    0.00       0.00       0.00       0.00       0.00       0.00       0.00        0.00     0.00   0.000
  CM-1286                    0.00       0.00       0.00       0.00       0.00       0.00       0.00        0.00     0.00   0.000
  CM-1287                    0.00       0.00       0.00       0.00       0.00       0.00       0.00        0.00     0.00   0.000
  CM-1288                    0.00       0.00       0.00       0.00       0.00       0.00       0.00        0.00     0.00   0.000
  CM-1289                    0.00       0.00       0.00       0.00       0.00       0.00       0.00        0.00     0.00   0.000
  CM-129                     0.00       0.00       0.00       0.00       0.00       0.00       0.00        0.00     0.00   0.000
  CM-1290                    0.00       0.00       0.00       0.00       0.00       0.00       0.00        0.00     0.00   0.000
  CM-1291                    0.00       0.00       0.00       0.00       0.00       0.00       0.00        0.00     0.00   0.000
  CM-1292                    0.00       0.00       0.00       0.00       0.00       0.00       0.00        0.00     0.00   0.000
  CM-1293                    0.00       0.00       0.00       0.00       0.00       0.00       0.00        0.00     0.00   0.000
  CM-1294                    0.00       0.00       0.00       0.00       0.00       0.00       0.00        0.00     0.00   0.000
  CM-1295                    0.00       0.00       0.00       0.00       0.00       0.00       0.00        0.00     0.00   0.000
  CM-1296                    0.00       0.00       0.00       0.00       0.00       0.00       0.00        0.00     0.00   0.000
  CM-1297                    0.00       0.00       0.00       0.00       0.00       0.00       0.00        0.00     0.00   0.000
  CM-1298                    0.00       0.00       0.00       0.00       0.00       0.00       0.00        0.00     0.00   0.000
  CM-1299                    0.00       0.00       0.00       0.00       0.00       0.00       0.00        0.00     0.00   0.000
  CM-13                      0.00       0.00       0.00       0.00       0.00       0.00       0.00        0.00     0.00   0.000
  CM-130                     0.00       0.00       0.00       0.00       0.00       0.00       0.00        0.00     0.00   0.000
  CM-1300                    0.00       0.00       0.00       0.00       0.00       0.00       0.00        0.00     0.00   0.000
  CM-1301                    0.00       0.00       0.00       0.00       0.00       0.00       0.00        0.00     0.00   0.000
  CM-1302                    0.00       0.00       0.00       0.00       0.00       0.00       0.00        0.00     0.00   0.000
  CM-1303                    0.00       0.00       0.00       0.00       0.00       0.00       0.00        0.00     0.00   0.000
  CM-1304                    0.00       0.00       0.00       0.00       0.00       0.00       0.00        0.00     0.00   0.000
  CM-1305                    0.00       0.00       0.00       0.00       0.00       0.00       0.00        0.00     0.00   0.000
  CM-1306                    0.00       0.00       0.00       0.00       0.00       0.00       0.00        0.00     0.00   0.000
  CM-1307                    0.00       0.00       0.00       0.00       0.00       0.00       0.00        0.00     0.00   0.000
  CM-1308                    0.00       0.00       0.00       0.00       0.00       0.00       0.00        0.00     0.00   0.000
  CM-1309                    0.00       0.00       0.00       0.00       0.00       0.00       0.00        0.00     0.00   0.000
  CM-131                     0.00       0.00       0.00       0.00       0.00       0.00       0.00        0.00     0.00   0.000
  CM-1310                    0.00       0.00       0.00       0.00       0.00       0.00       0.00        0.00     0.00   0.000
  CM-1311                    0.00       0.00       0.00       0.00       0.00       0.00       0.00        0.00     0.00   0.000
  CM-1312                    0.00       0.00       0.00       0.00       0.00       0.00       0.00        0.00     0.00   0.000
  CM-1313                    0.00       0.00       0.00       0.00       0.00       0.00       0.00        0.00     0.00   0.000
  CM-1314                    0.00       0.00       0.00       0.00       0.00       0.00       0.00        0.00     0.00   0.000
  CM-1315                    0.00       0.00       0.00       0.00       0.00       0.00       0.00        0.00     0.00   0.000
  CM-1316                    0.00       0.00       0.00       0.00       0.00       0.00       0.00        0.00     0.00   0.000
  CM-1317                    0.00       0.00       0.00       0.00       0.00       0.00       0.00        0.00     0.00   0.000
  CM-1318                    0.00       0.00       0.00       0.00       0.00       0.00       0.00        0.00     0.00   0.000
  CM-1319                    0.00       0.00       0.00       0.00       0.00       0.00       0.00        0.00     0.00   0.000
  CM-132                     0.00       0.00       0.00       0.00       0.00       0.00       0.00        0.00     0.00   0.000
  CM-1320                    0.00       0.00       0.00       0.00       0.00       0.00       0.00        0.00     0.00   0.000
  CM-1321                    0.00       0.00       0.00       0.00       0.00       0.00       0.00        0.00     0.00   0.000
  CM-1322                    0.00       0.00       0.00       0.00       0.00       0.00       0.00        0.00     0.00   0.000
  CM-1323                    0.00       0.00       0.00       0.00       0.00       0.00       0.00        0.00     0.00   0.000
  CM-1324                    0.00       0.00       0.00       0.00       0.00       0.00       0.00        0.00     0.00   0.000
  CM-1325                    0.00       0.00       0.00       0.00       0.00       0.00       0.00        0.00     0.00   0.000
  CM-1326                    0.00       0.00       0.00       0.00       0.00       0.00       0.00        0.00     0.00   0.000
  CM-1327                    0.00       0.00       0.00       0.00       0.00       0.00       0.00        0.00     0.00   0.000
  CM-1328                    0.00       0.00       0.00       0.00       0.00       0.00       0.00        0.00     0.00   0.000
  CM-1329                    0.00       0.00       0.00       0.00       0.00       0.00       0.00        0.00     0.00   0.000
  CM-133                     0.00       0.00       0.00       0.00       0.00       0.00       0.00        0.00     0.00   0.000
  CM-1330                    0.00       0.00       0.00       0.00       0.00       0.00       0.00        0.00     0.00   0.000
  CM-1331                    0.00       0.00       0.00       0.00       0.00       0.00       0.00        0.00     0.00   0.000
  CM-1332                    0.00       0.00       0.00       0.00       0.00       0.00       0.00        0.00     0.00   0.000
  CM-1333                    0.00       0.00       0.00       0.00       0.00       0.00       0.00        0.00     0.00   0.000
  CM-1334                    0.00       0.00       0.00       0.00       0.00       0.00       0.00        0.00     0.00   0.000
  CM-1335                    0.00       0.00       0.00       0.00       0.00       0.00       0.00        0.00     0.00   0.000
  CM-1336                    0.00       0.00       0.00       0.00       0.00       0.00       0.00        0.00     0.00   0.000
  CM-1337                    0.00       0.00       0.00       0.00       0.00       0.00       0.00        0.00     0.00   0.000
  CM-1338                    0.00       0.00       0.00       0.00       0.00       0.00       0.00        0.00     0.00   0.000
  CM-1339                    0.00       0.00       0.00       0.00       0.00       0.00       0.00        0.00     0.00   0.000
  CM-134                     0.00       0.00       0.00       0.00       0.00       0.00       0.00        0.00     0.00   0.000
  CM-1340                    0.00       0.00       0.00       0.00       0.00       0.00       0.00        0.00     0.00   0.000
  CM-1341                    0.00       0.00       0.00       0.00       0.00       0.00       0.00        0.00     0.00   0.000
  CM-1342                    0.00       0.00       0.00       0.00       0.00       0.00       0.00        0.00     0.00   0.000
  CM-1343                    0.00       0.00       0.00       0.00       0.00       0.00       0.00        0.00     0.00   0.000
  CM-1344                    0.00       0.00       0.00       0.00       0.00       0.00       0.00        0.00     0.00   0.000
  CM-1345                    0.00       0.00       0.00       0.00       0.00       0.00       0.00        0.00     0.00   0.000
  CM-1346                    0.00       0.00       0.00       0.00       0.00       0.00       0.00        0.00     0.00   0.000
  CM-1347                    0.00       0.00       0.00       0.00       0.00       0.00       0.00        0.00     0.00   0.000
  CM-1348                    0.00       0.00       0.00       0.00       0.00       0.00       0.00        0.00     0.00   0.000
  CM-1349                    0.00       0.00       0.00       0.00       0.00       0.00       0.00        0.00     0.00   0.000
  CM-135                     0.00       0.00       0.00       0.00       0.00       0.00       0.00        0.00     0.00   0.000
  CM-1350                    0.00       0.00       0.00       0.00       0.00       0.00       0.00        0.00     0.00   0.000
  CM-1351                    0.00       0.00       0.00       0.00       0.00       0.00       0.00        0.00     0.00   0.000
  CM-1352                    0.00       0.00       0.00       0.00       0.00       0.00       0.00        0.00     0.00   0.000
  CM-1353                    0.00       0.00       0.00       0.00       0.00       0.00       0.00        0.00     0.00   0.000
  CM-1354                    0.00       0.00       0.00       0.00       0.00       0.00       0.00        0.00     0.00   0.000
  CM-1355                    0.00       0.00       0.00       0.00       0.00       0.00       0.00        0.00     0.00   0.000
  CM-1356                    0.00       0.00       0.00       0.00       0.00       0.00       0.00        0.00     0.00   0.000
  CM-1357                    0.00       0.00       0.00       0.00       0.00       0.00       0.00        0.00     0.00   0.000
  CM-1358                    0.00       0.00       0.00       0.00       0.00       0.00       0.00        0.00     0.00   0.000
  CM-1359                    0.00       0.00       0.00       0.00       0.00       0.00       0.00        0.00     0.00   0.000
  CM-136                     0.00       0.00       0.00       0.00       0.00       0.00       0.00        0.00     0.00   0.000
  CM-1360                    0.00       0.00       0.00       0.00       0.00       0.00       0.00        0.00     0.00   0.000
  CM-1361                    0.00       0.00       0.00       0.00       0.00       0.00       0.00        0.00     0.00   0.000
  CM-1362                    0.00       0.00       0.00       0.00       0.00       0.00       0.00        0.00     0.00   0.000
  CM-1363                    0.00       0.00       0.00       0.00       0.00       0.00       0.00        0.00     0.00   0.000
  CM-1364                    0.00       0.00       0.00       0.00       0.00       0.00       0.00        0.00     0.00   0.000
  CM-1365                    0.00       0.00       0.00       0.00       0.00       0.00       0.00        0.00     0.00   0.000
  CM-1366                    0.00       0.00       0.00       0.00       0.00       0.00       0.00        0.00     0.00   0.000
  CM-1367                    0.00       0.00       0.00       0.00       0.00       0.00       0.00        0.00     0.00   0.000
  CM-1368                    0.00       0.00       0.00       0.00       0.00       0.00       0.00        0.00     0.00   0.000
  CM-1369                    0.00       0.00       0.00       0.00       0.00       0.00       0.00        0.00     0.00   0.000
  CM-137                     0.00       0.00       0.00       0.00       0.00       0.00       0.00        0.00     0.00   0.000
  CM-1370                    0.00       0.00       0.00       0.00       0.00       0.00       0.00        0.00     0.00   0.000
  CM-1371                    0.00       0.00       0.00       0.00       0.00       0.00       0.00        0.00     0.00   0.000
  CM-1372                    0.00       0.00       0.00       0.00       0.00       0.00       0.00        0.00     0.00   0.000
  CM-1373                    0.00       0.00       0.00       0.00       0.00       0.00       0.00        0.00     0.00   0.000
  CM-1374                    0.00       0.00       0.00       0.00       0.00       0.00       0.00        0.00     0.00   0.000
  CM-1375                    0.00       0.00       0.00       0.00       0.00       0.00       0.00        0.00     0.00   0.000
  CM-1376                    0.00       0.00       0.00       0.00       0.00       0.00       0.00        0.00     0.00   0.000
  CM-1377                    0.00       0.00       0.00       0.00       0.00       0.00       0.00        0.00     0.00   0.000
  CM-1378                    0.00       0.00       0.00       0.00       0.00       0.00       0.00        0.00     0.00   0.000
  CM-1379                    0.00       0.00       0.00       0.00       0.00       0.00       0.00        0.00     0.00   0.000
  CM-138                     0.00       0.00       0.00       0.00       0.00       0.00       0.00        0.00     0.00   0.000
  CM-1380                    0.00       0.00       0.00       0.00       0.00       0.00       0.00        0.00     0.00   0.000
  CM-1381                    0.00       0.00       0.00       0.00       0.00       0.00       0.00        0.00     0.00   0.000
  CM-1382                    0.00       0.00       0.00       0.00       0.00       0.00       0.00        0.00     0.00   0.000
  CM-1383                    0.00       0.00       0.00       0.00       0.00       0.00       0.00        0.00     0.00   0.000
  CM-1384                    0.00       0.00       0.00       0.00       0.00       0.00       0.00        0.00     0.00   0.000
  CM-1385                    0.00       0.00       0.00       0.00       0.00       0.00       0.00        0.00     0.00   0.000
  CM-1386                    0.00       0.00       0.00       0.00       0.00       0.00       0.00        0.00     0.00   0.000
  CM-1387                    0.00       0.00       0.00       0.00       0.00       0.00       0.00        0.00     0.00   0.000
  CM-1388                    0.00       0.00       0.00       0.00       0.00       0.00       0.00        0.00     0.00   0.000
  CM-1389                    0.00       0.00       0.00       0.00       0.00       0.00       0.00        0.00     0.00   0.000
  CM-139                     0.00       0.00       0.00       0.00       0.00       0.00       0.00        0.00     0.00   0.000
  CM-1390                    0.00       0.00       0.00       0.00       0.00       0.00       0.00        0.00     0.00   0.000
  CM-1391                    0.00       0.00       0.00       0.00       0.00       0.00       0.00        0.00     0.00   0.000
  CM-1392                    0.00       0.00       0.00       0.00       0.00       0.00       0.00        0.00     0.00   0.000
  CM-1393                    0.00       0.00       0.00       0.00       0.00       0.00       0.00        0.00     0.00   0.000
  CM-1394                    0.00       0.00       0.00       0.00       0.00       0.00       0.00        0.00     0.00   0.000
  CM-1395                    0.00       0.00       0.00       0.00       0.00       0.00       0.00        0.00     0.00   0.000
  CM-1396                    0.00       0.00       0.00       0.00       0.00       0.00       0.00        0.00     0.00   0.000
  CM-1397                    0.00       0.00       0.00       0.00       0.00       0.00       0.00        0.00     0.00   0.000
  CM-1398                    0.00       0.00       0.00       0.00       0.00       0.00       0.00        0.00     0.00   0.000
  CM-1399                    0.00       0.00       0.00       0.00       0.00       0.00       0.00        0.00     0.00   0.000
  CM-14                      0.00       0.00       0.00       0.00       0.00       0.00       0.00        0.00     0.00   0.000
  CM-140                     0.00       0.00       0.00       0.00       0.00       0.00       0.00        0.00     0.00   0.000
  CM-1400                    0.00       0.00       0.00       0.00       0.00       0.00       0.00        0.00     0.00   0.000
  CM-1401                    0.00       0.00       0.00       0.00       0.00       0.00       0.00        0.00     0.00   0.000
  CM-1402                    0.00       0.00       0.00       0.00       0.00       0.00       0.00        0.00     0.00   0.000
  CM-1403                    0.00       0.00       0.00       0.00       0.00       0.00       0.00        0.00     0.00   0.000
  CM-1404                    0.00       0.00       0.00       0.00       0.00       0.00       0.00        0.00     0.00   0.000
  CM-1405                    0.00       0.00       0.00       0.00       0.00       0.00       0.00        0.00     0.00   0.000
  CM-1406                    0.00       0.00       0.00       0.00       0.00       0.00       0.00        0.00     0.00   0.000
  CM-1407                    0.00       0.00       0.00       0.00       0.00       0.00       0.00        0.00     0.00   0.000
  CM-1408                    0.00       0.00       0.00       0.00       0.00       0.00       0.00        0.00     0.00   0.000
  CM-1409                    0.00       0.00       0.00       0.00       0.00       0.00       0.00        0.00     0.00   0.000
  CM-141                     0.00       0.00       0.00       0.00       0.00       0.00       0.00        0.00     0.00   0.000
  CM-1410                    0.00       0.00       0.00       0.00       0.00       0.00       0.00        0.00     0.00   0.000
  CM-1411                    0.00       0.00       0.00       0.00       0.00       0.00       0.00        0.00     0.00   0.000
  CM-1412                    0.00       0.00       0.00       0.00       0.00       0.00       0.00        0.00     0.00   0.000
  CM-1413                    0.00       0.00       0.00       0.00       0.00       0.00       0.00        0.00     0.00   0.000
  CM-1414                    0.00       0.00       0.00       0.00       0.00       0.00       0.00        0.00     0.00   0.000
  CM-1415                    0.00       0.00       0.00       0.00       0.00       0.00       0.00        0.00     0.00   0.000
  CM-1416                    0.00       0.00       0.00       0.00       0.00       0.00       0.00        0.00     0.00   0.000
  CM-1417                    0.00       0.00       0.00       0.00       0.00       0.00       0.00        0.00     0.00   0.000
  CM-1418                    0.00       0.00       0.00       0.00       0.00       0.00       0.00        0.00     0.00   0.000
  CM-1419                    0.00       0.00       0.00       0.00       0.00       0.00       0.00        0.00     0.00   0.000
  CM-142                     0.00       0.00       0.00       0.00       0.00       0.00       0.00        0.00     0.00   0.000
  CM-1420                    0.00       0.00       0.00       0.00       0.00       0.00       0.00        0.00     0.00   0.000
  CM-1421                    0.00       0.00       0.00       0.00       0.00       0.00       0.00        0.00     0.00   0.000
  CM-1422                    0.00       0.00       0.00       0.00       0.00       0.00       0.00        0.00     0.00   0.000
  CM-1423                    0.00       0.00       0.00       0.00       0.00       0.00       0.00        0.00     0.00   0.000
  CM-1424                    0.00       0.00       0.00       0.00       0.00       0.00       0.00        0.00     0.00   0.000
  CM-1425                    0.00       0.00       0.00       0.00       0.00       0.00       0.00        0.00     0.00   0.000
  CM-1426                    0.00       0.00       0.00       0.00       0.00       0.00       0.00        0.00     0.00   0.000
  CM-1427                    0.00       0.00       0.00       0.00       0.00       0.00       0.00        0.00     0.00   0.000
  CM-1428                    0.00       0.00       0.00       0.00       0.00       0.00       0.00        0.00     0.00   0.000
  CM-1429                    0.00       0.00       0.00       0.00       0.00       0.00       0.00        0.00     0.00   0.000
  CM-143                     0.00       0.00       0.00       0.00       0.00       0.00       0.00        0.00     0.00   0.000
  CM-1430                    0.00       0.00       0.00       0.00       0.00       0.00       0.00        0.00     0.00   0.000
  CM-1431                    0.00       0.00       0.00       0.00       0.00       0.00       0.00        0.00     0.00   0.000
  CM-1432                    0.00       0.00       0.00       0.00       0.00       0.00       0.00        0.00     0.00   0.000
  CM-1433                    0.00       0.00       0.00       0.00       0.00       0.00       0.00        0.00     0.00   0.000
  CM-1434                    0.00       0.00       0.00       0.00       0.00       0.00       0.00        0.00     0.00   0.000
  CM-1435                    0.00       0.00       0.00       0.00       0.00       0.00       0.00        0.00     0.00   0.000
  CM-1436                    0.00       0.00       0.00       0.00       0.00       0.00       0.00        0.00     0.00   0.000
  CM-1437                    0.00       0.00       0.00       0.00       0.00       0.00       0.00        0.00     0.00   0.000
  CM-1438                    0.00       0.00       0.00       0.00       0.00       0.00       0.00        0.00     0.00   0.000
  CM-1439                    0.00       0.00       0.00       0.00       0.00       0.00       0.00        0.00     0.00   0.000
  CM-144                     0.00       0.00       0.00       0.00       0.00       0.00       0.00        0.00     0.00   0.000
  CM-1440                    0.00       0.00       0.00       0.00       0.00       0.00       0.00        0.00     0.00   0.000
  CM-1441                    0.00       0.00       0.00       0.00       0.00       0.00       0.00        0.00     0.00   0.000
  CM-1442                    0.00       0.00       0.00       0.00       0.00       0.00       0.00        0.00     0.00   0.000
  CM-1443                    0.00       0.00       0.00       0.00       0.00       0.00       0.00        0.00     0.00   0.000
  CM-1444                    0.00       0.00       0.00       0.00       0.00       0.00       0.00        0.00     0.00   0.000
  CM-1445                    0.00       0.00       0.00       0.00       0.00       0.00       0.00        0.00     0.00   0.000
  CM-1446                    0.00       0.00       0.00       0.00       0.00       0.00       0.00        0.00     0.00   0.000
  CM-1447                    0.00       0.00       0.00       0.00       0.00       0.00       0.00        0.00     0.00   0.000
  CM-1448                    0.00       0.00       0.00       0.00       0.00       0.00       0.00        0.00     0.00   0.000
  CM-1449                    0.00       0.00       0.00       0.00       0.00       0.00       0.00        0.00     0.00   0.000
  CM-145                     0.00       0.00       0.00       0.00       0.00       0.00       0.00        0.00     0.00   0.000
  CM-1450                    0.00       0.00       0.00       0.00       0.00       0.00       0.00        0.00     0.00   0.000
  CM-1451                    0.00       0.00       0.00       0.00       0.00       0.00       0.00        0.00     0.00   0.000
  CM-1452                    0.00       0.00       0.00       0.00       0.00       0.00       0.00        0.00     0.00   0.000
  CM-1453                    0.00       0.00       0.00       0.00       0.00       0.00       0.00        0.00     0.00   0.000
  CM-1454                    0.00       0.00       0.00       0.00       0.00       0.00       0.00        0.00     0.00   0.000
  CM-1455                    0.00       0.00       0.00       0.00       0.00       0.00       0.00        0.00     0.00   0.000
  CM-1456                    0.00       0.00       0.00       0.00       0.00       0.00       0.00        0.00     0.00   0.000
  CM-1457                    0.00       0.00       0.00       0.00       0.00       0.00       0.00        0.00     0.00   0.000
  CM-1458                    0.00       0.00       0.00       0.00       0.00       0.00       0.00        0.00     0.00   0.000
  CM-1459                    0.00       0.00       0.00       0.00       0.00       0.00       0.00        0.00     0.00   0.000
  CM-146                     0.00       0.00       0.00       0.00       0.00       0.00       0.00        0.00     0.00   0.000
  CM-1460                    0.00       0.00       0.00       0.00       0.00       0.00       0.00        0.00     0.00   0.000
  CM-1461                    0.00       0.00       0.00       0.00       0.00       0.00       0.00        0.00     0.00   0.000
  CM-1462                    0.00       0.00       0.00       0.00       0.00       0.00       0.00        0.00     0.00   0.000
  CM-1463                    0.00       0.00       0.00       0.00       0.00       0.00       0.00        0.00     0.00   0.000
  CM-1464                    0.00       0.00       0.00       0.00       0.00       0.00       0.00        0.00     0.00   0.000
  CM-1465                    0.00       0.00       0.00       0.00       0.00       0.00       0.00        0.00     0.00   0.000
  CM-1466                    0.00       0.00       0.00       0.00       0.00       0.00       0.00        0.00     0.00   0.000
  CM-1467                    0.00       0.00       0.00       0.00       0.00       0.00       0.00        0.00     0.00   0.000
  CM-1468                    0.00       0.00       0.00       0.00       0.00       0.00       0.00        0.00     0.00   0.000
  CM-1469                    0.00       0.00       0.00       0.00       0.00       0.00       0.00        0.00     0.00   0.000
  CM-147                     0.00       0.00       0.00       0.00       0.00       0.00       0.00        0.00     0.00   0.000
  CM-1470                    0.00       0.00       0.00       0.00       0.00       0.00       0.00        0.00     0.00   0.000
  CM-1471                    0.00       0.00       0.00       0.00       0.00       0.00       0.00        0.00     0.00   0.000
  CM-1472                    0.00       0.00       0.00       0.00       0.00       0.00       0.00        0.00     0.00   0.000
  CM-1473                    0.00       0.00       0.00       0.00       0.00       0.00       0.00        0.00     0.00   0.000
  CM-1474                    0.00       0.00       0.00       0.00       0.00       0.00       0.00        0.00     0.00   0.000
  CM-1475                    0.00       0.00       0.00       0.00       0.00       0.00       0.00        0.00     0.00   0.000
  CM-1476                    0.00       0.00       0.00       0.00       0.00       0.00       0.00        0.00     0.00   0.000
  CM-1477                    0.00       0.00       0.00       0.00       0.00       0.00       0.00        0.00     0.00   0.000
  CM-1478                    0.00       0.00       0.00       0.00       0.00       0.00       0.00        0.00     0.00   0.000
  CM-1479                    0.00       0.00       0.00       0.00       0.00       0.00       0.00        0.00     0.00   0.000
  CM-148                     0.00       0.00       0.00       0.00       0.00       0.00       0.00        0.00     0.00   0.000
  CM-1480                    0.00       0.00       0.00       0.00       0.00       0.00       0.00        0.00     0.00   0.000
  CM-1481                    0.00       0.00       0.00       0.00       0.00       0.00       0.00        0.00     0.00   0.000
  CM-1482                    0.00       0.00       0.00       0.00       0.00       0.00       0.00        0.00     0.00   0.000
  CM-1483                    0.00       0.00       0.00       0.00       0.00       0.00       0.00        0.00     0.00   0.000
  CM-1484                    0.00       0.00       0.00       0.00       0.00       0.00       0.00        0.00     0.00   0.000
  CM-1485                    0.00       0.00       0.00       0.00       0.00       0.00       0.00        0.00     0.00   0.000
  CM-1486                    0.00       0.00       0.00       0.00       0.00       0.00       0.00        0.00     0.00   0.000
  CM-1487                    0.00       0.00       0.00       0.00       0.00       0.00       0.00        0.00     0.00   0.000
  CM-1488                    0.00       0.00       0.00       0.00       0.00       0.00       0.00        0.00     0.00   0.000
  CM-1489                    0.00       0.00       0.00       0.00       0.00       0.00       0.00        0.00     0.00   0.000
  CM-149                     0.00       0.00       0.00       0.00       0.00       0.00       0.00        0.00     0.00   0.000
  CM-1490                    0.00       0.00       0.00       0.00       0.00       0.00       0.00        0.00     0.00   0.000
  CM-1491                    0.00       0.00       0.00       0.00       0.00       0.00       0.00        0.00     0.00   0.000
  CM-1492                    0.00       0.00       0.00       0.00       0.00       0.00       0.00        0.00     0.00   0.000
  CM-1493                    0.00       0.00       0.00       0.00       0.00       0.00       0.00        0.00     0.00   0.000
  CM-1494                    0.00       0.00       0.00       0.00       0.00       0.00       0.00        0.00     0.00   0.000
  CM-1495                    0.00       0.00       0.00       0.00       0.00       0.00       0.00        0.00     0.00   0.000
  CM-1496                    0.00       0.00       0.00       0.00       0.00       0.00       0.00        0.00     0.00   0.000
  CM-1497                    0.00       0.00       0.00       0.00       0.00       0.00       0.00        0.00     0.00   0.000
  CM-1498                    0.00       0.00       0.00       0.00       0.00       0.00       0.00        0.00     0.00   0.000
  CM-1499                    0.00       0.00       0.00       0.00       0.00       0.00       0.00        0.00     0.00   0.000
  CM-15                      0.00       0.00       0.00       0.00       0.00       0.00       0.00        0.00     0.00   0.000
  CM-150                     0.00       0.00       0.00       0.00       0.00       0.00       0.00        0.00     0.00   0.000
  CM-1500                    0.00       0.00       0.00       0.00       0.00       0.00       0.00        0.00     0.00   0.000
  CM-1501                    0.00       0.00       0.00       0.00       0.00       0.00       0.00        0.00     0.00   0.000
  CM-1502                    0.00       0.00       0.00       0.00       0.00       0.00       0.00        0.00     0.00   0.000
  CM-1503                    0.00       0.00       0.00       0.00       0.00       0.00       0.00        0.00     0.00   0.000
  CM-1504                    0.00       0.00       0.00       0.00       0.00       0.00       0.00        0.00     0.00   0.000
  CM-1505                    0.00       0.00       0.00       0.00       0.00       0.00       0.00        0.00     0.00   0.000
  CM-1506                    0.00       0.00       0.00       0.00       0.00       0.00       0.00        0.00     0.00   0.000
  CM-1507                    0.00       0.00       0.00       0.00       0.00       0.00       0.00        0.00     0.00   0.000
  CM-1508                    0.00       0.00       0.00       0.00       0.00       0.00       0.00        0.00     0.00   0.000
  CM-1509                    0.00       0.00       0.00       0.00       0.00       0.00       0.00        0.00     0.00   0.000
  CM-151                     0.00       0.00       0.00       0.00       0.00       0.00       0.00        0.00     0.00   0.000
  CM-1510                    0.00       0.00       0.00       0.00       0.00       0.00       0.00        0.00     0.00   0.000
  CM-1511                    0.00       0.00       0.00       0.00       0.00       0.00       0.00        0.00     0.00   0.000
  CM-1512                    0.00       0.00       0.00       0.00       0.00       0.00       0.00        0.00     0.00   0.000
  CM-1513                    0.00       0.00       0.00       0.00       0.00       0.00       0.00        0.00     0.00   0.000
  CM-1514                    0.00       0.00       0.00       0.00       0.00       0.00       0.00        0.00     0.00   0.000
  CM-1515                    0.00       0.00       0.00       0.00       0.00       0.00       0.00        0.00     0.00   0.000
  CM-1516                    0.00       0.00       0.00       0.00       0.00       0.00       0.00        0.00     0.00   0.000
  CM-1517                    0.00       0.00       0.00       0.00       0.00       0.00       0.00        0.00     0.00   0.000
  CM-1518                    0.00       0.00       0.00       0.00       0.00       0.00       0.00        0.00     0.00   0.000
  CM-1519                    0.00       0.00       0.00       0.00       0.00       0.00       0.00        0.00     0.00   0.000
  CM-152                     0.00       0.00       0.00       0.00       0.00       0.00       0.00        0.00     0.00   0.000
  CM-1520                    0.00       0.00       0.00       0.00       0.00       0.00       0.00        0.00     0.00   0.000
  CM-1521                    0.00       0.00       0.00       0.00       0.00       0.00       0.00        0.00     0.00   0.000
  CM-1522                    0.00       0.00       0.00       0.00       0.00       0.00       0.00        0.00     0.00   0.000
  CM-1523                    0.00       0.00       0.00       0.00       0.00       0.00       0.00        0.00     0.00   0.000
  CM-1524                    0.00       0.00       0.00       0.00       0.00       0.00       0.00        0.00     0.00   0.000
  CM-1525                    0.00       0.00       0.00       0.00       0.00       0.00       0.00        0.00     0.00   0.000
  CM-1526                    0.00       0.00       0.00       0.00       0.00       0.00       0.00        0.00     0.00   0.000
  CM-1527                    0.00       0.00       0.00       0.00       0.00       0.00       0.00        0.00     0.00   0.000
  CM-1528                    0.00       0.00       0.00       0.00       0.00       0.00       0.00        0.00     0.00   0.000
  CM-1529                    0.00       0.00       0.00       0.00       0.00       0.00       0.00        0.00     0.00   0.000
  CM-153                     0.00       0.00       0.00       0.00       0.00       0.00       0.00        0.00     0.00   0.000
  CM-1530                    0.00       0.00       0.00       0.00       0.00       0.00       0.00        0.00     0.00   0.000
[...]
  MH1-64.5.4.2            1.00   -nan(ind)  -nan(ind)  -nan(ind)  -nan(ind)  -nan(ind)  -nan(ind)  -nan(ind)  -nan(ind)  -nan(ind)
  MH1-64.5.5.1            1.00   -nan(ind)  -nan(ind)  -nan(ind)  -nan(ind)  -nan(ind)  -nan(ind)  -nan(ind)  -nan(ind)  -nan(ind)
  MH1-64.6.1              1.00   -nan(ind)  -nan(ind)  -nan(ind)  -nan(ind)  -nan(ind)  -nan(ind)  -nan(ind)  -nan(ind)  -nan(ind)
  MH1-64.7.1              1.00   -nan(ind)  -nan(ind)  -nan(ind)  -nan(ind)  -nan(ind)  -nan(ind)  -nan(ind)  -nan(ind)  -nan(ind)
  MH1-64.8.1              1.00   -nan(ind)  -nan(ind)  -nan(ind)  -nan(ind)  -nan(ind)  -nan(ind)  -nan(ind)  -nan(ind)  -nan(ind)
  MH1-64.9.1              1.00   -nan(ind)  -nan(ind)  -nan(ind)  -nan(ind)  -nan(ind)  -nan(ind)  -nan(ind)  -nan(ind)  -nan(ind)
  MH1-65.2                1.00   -nan(ind)  -nan(ind)  -nan(ind)  -nan(ind)  -nan(ind)  -nan(ind)  -nan(ind)  -nan(ind)  -nan(ind)
  MH1-66.1                1.00   -nan(ind)  -nan(ind)  -nan(ind)  -nan(ind)  -nan(ind)  -nan(ind)  -nan(ind)  -nan(ind)  -nan(ind)
  MH1-67.1                1.00   -nan(ind)  -nan(ind)  -nan(ind)  -nan(ind)  -nan(ind)  -nan(ind)  -nan(ind)  -nan(ind)  -nan(ind)
  MH1-68.2                1.00   -nan(ind)  -nan(ind)  -nan(ind)  -nan(ind)  -nan(ind)  -nan(ind)  -nan(ind)  -nan(ind)  -nan(ind)
  MH1-69.1                1.00   -nan(ind)  -nan(ind)  -nan(ind)  -nan(ind)  -nan(ind)  -nan(ind)  -nan(ind)  -nan(ind)  -nan(ind)
  MH1-7.1                 1.00   -nan(ind)  -nan(ind)  -nan(ind)  -nan(ind)  -nan(ind)  -nan(ind)  -nan(ind)  -nan(ind)  -nan(ind)
  MH1-70.1                1.00   -nan(ind)  -nan(ind)  -nan(ind)  -nan(ind)  -nan(ind)  -nan(ind)  -nan(ind)  -nan(ind)  -nan(ind)
  MH1-71.1                1.00   -nan(ind)  -nan(ind)  -nan(ind)  -nan(ind)  -nan(ind)  -nan(ind)  -nan(ind)  -nan(ind)  -nan(ind)
  MH1-8.1                 1.00   -nan(ind)  -nan(ind)  -nan(ind)  -nan(ind)  -nan(ind)  -nan(ind)  -nan(ind)  -nan(ind)  -nan(ind)
  MH1-9.1                 1.00   -nan(ind)  -nan(ind)  -nan(ind)  -nan(ind)  -nan(ind)  -nan(ind)  -nan(ind)  -nan(ind)  -nan(ind)
  MH2-1.1                 1.15   -nan(ind)  -nan(ind)  -nan(ind)  -nan(ind)  -nan(ind)  -nan(ind)  -nan(ind)  -nan(ind)  -nan(ind)
  MH2-10.1                1.00   -nan(ind)  -nan(ind)  -nan(ind)  -nan(ind)  -nan(ind)  -nan(ind)  -nan(ind)  -nan(ind)  -nan(ind)
  MH2-11.1                1.00   -nan(ind)  -nan(ind)  -nan(ind)  -nan(ind)  -nan(ind)  -nan(ind)  -nan(ind)  -nan(ind)  -nan(ind)
  MH2-12.2                1.00   -nan(ind)  -nan(ind)  -nan(ind)  -nan(ind)  -nan(ind)  -nan(ind)  -nan(ind)  -nan(ind)  -nan(ind)
  MH2-13.1                1.00   -nan(ind)  -nan(ind)  -nan(ind)  -nan(ind)  -nan(ind)  -nan(ind)  -nan(ind)  -nan(ind)  -nan(ind)
  MH2-14.1                1.00   -nan(ind)  -nan(ind)  -nan(ind)  -nan(ind)  -nan(ind)  -nan(ind)  -nan(ind)  -nan(ind)  -nan(ind)
  MH2-15.1                1.00   -nan(ind)  -nan(ind)  -nan(ind)  -nan(ind)  -nan(ind)  -nan(ind)  -nan(ind)  -nan(ind)  -nan(ind)
  MH2-16.1                1.00   -nan(ind)  -nan(ind)  -nan(ind)  -nan(ind)  -nan(ind)  -nan(ind)  -nan(ind)  -nan(ind)  -nan(ind)
  MH2-17.1                1.00   -nan(ind)  -nan(ind)  -nan(ind)  -nan(ind)  -nan(ind)  -nan(ind)  -nan(ind)  -nan(ind)  -nan(ind)
  MH2-18.1                1.00   -nan(ind)  -nan(ind)  -nan(ind)  -nan(ind)  -nan(ind)  -nan(ind)  -nan(ind)  -nan(ind)  -nan(ind)
  MH2-19.1                1.00   -nan(ind)  -nan(ind)  -nan(ind)  -nan(ind)  -nan(ind)  -nan(ind)  -nan(ind)  -nan(ind)  -nan(ind)
  MH2-2.1                 1.00   -nan(ind)  -nan(ind)  -nan(ind)  -nan(ind)  -nan(ind)  -nan(ind)  -nan(ind)  -nan(ind)  -nan(ind)
  MH2-20.1                1.00   -nan(ind)  -nan(ind)  -nan(ind)  -nan(ind)  -nan(ind)  -nan(ind)  -nan(ind)  -nan(ind)  -nan(ind)
  MH2-21.2                1.00   -nan(ind)  -nan(ind)  -nan(ind)  -nan(ind)  -nan(ind)  -nan(ind)  -nan(ind)  -nan(ind)  -nan(ind)
  MH2-22.1                1.00   -nan(ind)  -nan(ind)  -nan(ind)  -nan(ind)  -nan(ind)  -nan(ind)  -nan(ind)  -nan(ind)  -nan(ind)
  MH2-23.2                1.00   -nan(ind)  -nan(ind)  -nan(ind)  -nan(ind)  -nan(ind)  -nan(ind)  -nan(ind)  -nan(ind)  -nan(ind)
  MH2-24.1                1.00   -nan(ind)  -nan(ind)  -nan(ind)  -nan(ind)  -nan(ind)  -nan(ind)  -nan(ind)  -nan(ind)  -nan(ind)
  MH2-25.1                1.51   -nan(ind)  -nan(ind)  -nan(ind)  -nan(ind)  -nan(ind)  -nan(ind)  -nan(ind)  -nan(ind)  -nan(ind)
  MH2-26.1                1.00   -nan(ind)  -nan(ind)  -nan(ind)  -nan(ind)  -nan(ind)  -nan(ind)  -nan(ind)  -nan(ind)  -nan(ind)
  MH2-27.2                1.00   -nan(ind)  -nan(ind)  -nan(ind)  -nan(ind)  -nan(ind)  -nan(ind)  -nan(ind)  -nan(ind)  -nan(ind)
  MH2-28.2                1.00   -nan(ind)  -nan(ind)  -nan(ind)  -nan(ind)  -nan(ind)  -nan(ind)  -nan(ind)  -nan(ind)  -nan(ind)
  MH2-29.2                1.00   -nan(ind)  -nan(ind)  -nan(ind)  -nan(ind)  -nan(ind)  -nan(ind)  -nan(ind)  -nan(ind)  -nan(ind)
  MH2-3.1                 1.00   -nan(ind)  -nan(ind)  -nan(ind)  -nan(ind)  -nan(ind)  -nan(ind)  -nan(ind)  -nan(ind)  -nan(ind)
  MH2-30.2                1.00   -nan(ind)  -nan(ind)  -nan(ind)  -nan(ind)  -nan(ind)  -nan(ind)  -nan(ind)  -nan(ind)  -nan(ind)
  MH2-31.1                1.00   -nan(ind)  -nan(ind)  -nan(ind)  -nan(ind)  -nan(ind)  -nan(ind)  -nan(ind)  -nan(ind)  -nan(ind)
  MH2-32.2                1.00   -nan(ind)  -nan(ind)  -nan(ind)  -nan(ind)  -nan(ind)  -nan(ind)  -nan(ind)  -nan(ind)  -nan(ind)
  MH2-33.1                1.00   -nan(ind)  -nan(ind)  -nan(ind)  -nan(ind)  -nan(ind)  -nan(ind)  -nan(ind)  -nan(ind)  -nan(ind)
  MH2-33.1.1              1.00   -nan(ind)  -nan(ind)  -nan(ind)  -nan(ind)  -nan(ind)  -nan(ind)  -nan(ind)  -nan(ind)  -nan(ind)
  MH2-33.2.1              1.00   -nan(ind)  -nan(ind)  -nan(ind)  -nan(ind)  -nan(ind)  -nan(ind)  -nan(ind)  -nan(ind)  -nan(ind)
  MH2-33.3.1              1.00   -nan(ind)  -nan(ind)  -nan(ind)  -nan(ind)  -nan(ind)  -nan(ind)  -nan(ind)  -nan(ind)  -nan(ind)
  MH2-34.1                1.00   -nan(ind)  -nan(ind)  -nan(ind)  -nan(ind)  -nan(ind)  -nan(ind)  -nan(ind)  -nan(ind)  -nan(ind)
  MH2-35.1.1              1.00   -nan(ind)  -nan(ind)  -nan(ind)  -nan(ind)  -nan(ind)  -nan(ind)  -nan(ind)  -nan(ind)  -nan(ind)
  MH2-35.2                1.00   -nan(ind)  -nan(ind)  -nan(ind)  -nan(ind)  -nan(ind)  -nan(ind)  -nan(ind)  -nan(ind)  -nan(ind)
  MH2-35.2.1              1.00   -nan(ind)  -nan(ind)  -nan(ind)  -nan(ind)  -nan(ind)  -nan(ind)  -nan(ind)  -nan(ind)  -nan(ind)
  MH2-35.2.1.1            1.00   -nan(ind)  -nan(ind)  -nan(ind)  -nan(ind)  -nan(ind)  -nan(ind)  -nan(ind)  -nan(ind)  -nan(ind)
  MH2-35.3.1              1.00   -nan(ind)  -nan(ind)  -nan(ind)  -nan(ind)  -nan(ind)  -nan(ind)  -nan(ind)  -nan(ind)  -nan(ind)
  MH2-36.1.1              1.00   -nan(ind)  -nan(ind)  -nan(ind)  -nan(ind)  -nan(ind)  -nan(ind)  -nan(ind)  -nan(ind)  -nan(ind)
  MH2-36.2                1.00   -nan(ind)  -nan(ind)  -nan(ind)  -nan(ind)  -nan(ind)  -nan(ind)  -nan(ind)  -nan(ind)  -nan(ind)
  MH2-36.2.1              1.00   -nan(ind)  -nan(ind)  -nan(ind)  -nan(ind)  -nan(ind)  -nan(ind)  -nan(ind)  -nan(ind)  -nan(ind)
  MH2-37.2                1.00   -nan(ind)  -nan(ind)  -nan(ind)  -nan(ind)  -nan(ind)  -nan(ind)  -nan(ind)  -nan(ind)  -nan(ind)
  MH2-38.1                1.00   -nan(ind)  -nan(ind)  -nan(ind)  -nan(ind)  -nan(ind)  -nan(ind)  -nan(ind)  -nan(ind)  -nan(ind)
  MH2-38.1.1              1.00   -nan(ind)  -nan(ind)  -nan(ind)  -nan(ind)  -nan(ind)  -nan(ind)  -nan(ind)  -nan(ind)  -nan(ind)
  MH2-38.2.1              1.00   -nan(ind)  -nan(ind)  -nan(ind)  -nan(ind)  -nan(ind)  -nan(ind)  -nan(ind)  -nan(ind)  -nan(ind)
  MH2-39.1                1.00   -nan(ind)  -nan(ind)  -nan(ind)  -nan(ind)  -nan(ind)  -nan(ind)  -nan(ind)  -nan(ind)  -nan(ind)
  MH2-4.1                 1.00   -nan(ind)  -nan(ind)  -nan(ind)  -nan(ind)  -nan(ind)  -nan(ind)  -nan(ind)  -nan(ind)  -nan(ind)
  MH2-40.1                1.00   -nan(ind)  -nan(ind)  -nan(ind)  -nan(ind)  -nan(ind)  -nan(ind)  -nan(ind)  -nan(ind)  -nan(ind)
  MH2-40.1.1              1.00   -nan(ind)  -nan(ind)  -nan(ind)  -nan(ind)  -nan(ind)  -nan(ind)  -nan(ind)  -nan(ind)  -nan(ind)
  MH2-40.2.1              1.00   -nan(ind)  -nan(ind)  -nan(ind)  -nan(ind)  -nan(ind)  -nan(ind)  -nan(ind)  -nan(ind)  -nan(ind)
  MH2-41.1                1.00   -nan(ind)  -nan(ind)  -nan(ind)  -nan(ind)  -nan(ind)  -nan(ind)  -nan(ind)  -nan(ind)  -nan(ind)
  MH2-42.1.1.1            1.00   -nan(ind)  -nan(ind)  -nan(ind)  -nan(ind)  -nan(ind)  -nan(ind)  -nan(ind)  -nan(ind)  -nan(ind)
  MH2-42.1.2              1.00   -nan(ind)  -nan(ind)  -nan(ind)  -nan(ind)  -nan(ind)  -nan(ind)  -nan(ind)  -nan(ind)  -nan(ind)
  MH2-42.2                1.00   -nan(ind)  -nan(ind)  -nan(ind)  -nan(ind)  -nan(ind)  -nan(ind)  -nan(ind)  -nan(ind)  -nan(ind)
  MH2-42.2.1              1.00   -nan(ind)  -nan(ind)  -nan(ind)  -nan(ind)  -nan(ind)  -nan(ind)  -nan(ind)  -nan(ind)  -nan(ind)
  MH2-43.2                1.00   -nan(ind)  -nan(ind)  -nan(ind)  -nan(ind)  -nan(ind)  -nan(ind)  -nan(ind)  -nan(ind)  -nan(ind)
  MH2-44.1.1              1.00   -nan(ind)  -nan(ind)  -nan(ind)  -nan(ind)  -nan(ind)  -nan(ind)  -nan(ind)  -nan(ind)  -nan(ind)
  MH2-44.2                1.00   -nan(ind)  -nan(ind)  -nan(ind)  -nan(ind)  -nan(ind)  -nan(ind)  -nan(ind)  -nan(ind)  -nan(ind)
  MH2-44.2.1              1.00   -nan(ind)  -nan(ind)  -nan(ind)  -nan(ind)  -nan(ind)  -nan(ind)  -nan(ind)  -nan(ind)  -nan(ind)
  MH2-44.3.1              1.00   -nan(ind)  -nan(ind)  -nan(ind)  -nan(ind)  -nan(ind)  -nan(ind)  -nan(ind)  -nan(ind)  -nan(ind)
  MH2-45.1.1              1.00   -nan(ind)  -nan(ind)  -nan(ind)  -nan(ind)  -nan(ind)  -nan(ind)  -nan(ind)  -nan(ind)  -nan(ind)
  MH2-45.2                1.00   -nan(ind)  -nan(ind)  -nan(ind)  -nan(ind)  -nan(ind)  -nan(ind)  -nan(ind)  -nan(ind)  -nan(ind)
  MH2-45.2.1              1.00   -nan(ind)  -nan(ind)  -nan(ind)  -nan(ind)  -nan(ind)  -nan(ind)  -nan(ind)  -nan(ind)  -nan(ind)
  MH2-46.1.1              1.00   -nan(ind)  -nan(ind)  -nan(ind)  -nan(ind)  -nan(ind)  -nan(ind)  -nan(ind)  -nan(ind)  -nan(ind)
  MH2-46.2                1.00   -nan(ind)  -nan(ind)  -nan(ind)  -nan(ind)  -nan(ind)  -nan(ind)  -nan(ind)  -nan(ind)  -nan(ind)
  MH2-46.2.1              1.00   -nan(ind)  -nan(ind)  -nan(ind)  -nan(ind)  -nan(ind)  -nan(ind)  -nan(ind)  -nan(ind)  -nan(ind)
  MH2-47.1.1              1.00   -nan(ind)  -nan(ind)  -nan(ind)  -nan(ind)  -nan(ind)  -nan(ind)  -nan(ind)  -nan(ind)  -nan(ind)
  MH2-47.2                1.00   -nan(ind)  -nan(ind)  -nan(ind)  -nan(ind)  -nan(ind)  -nan(ind)  -nan(ind)  -nan(ind)  -nan(ind)
  MH2-47.2.1              1.00   -nan(ind)  -nan(ind)  -nan(ind)  -nan(ind)  -nan(ind)  -nan(ind)  -nan(ind)  -nan(ind)  -nan(ind)
  MH2-47.A1.1             1.00   -nan(ind)  -nan(ind)  -nan(ind)  -nan(ind)  -nan(ind)  -nan(ind)  -nan(ind)  -nan(ind)  -nan(ind)
  MH2-48.1.1              1.00   -nan(ind)  -nan(ind)  -nan(ind)  -nan(ind)  -nan(ind)  -nan(ind)  -nan(ind)  -nan(ind)  -nan(ind)
  MH2-48.2                1.00   -nan(ind)  -nan(ind)  -nan(ind)  -nan(ind)  -nan(ind)  -nan(ind)  -nan(ind)  -nan(ind)  -nan(ind)
  MH2-48.2.1              1.00   -nan(ind)  -nan(ind)  -nan(ind)  -nan(ind)  -nan(ind)  -nan(ind)  -nan(ind)  -nan(ind)  -nan(ind)
  MH2-49.2                1.00   -nan(ind)  -nan(ind)  -nan(ind)  -nan(ind)  -nan(ind)  -nan(ind)  -nan(ind)  -nan(ind)  -nan(ind)
  MH2-5.1                 1.00   -nan(ind)  -nan(ind)  -nan(ind)  -nan(ind)  -nan(ind)  -nan(ind)  -nan(ind)  -nan(ind)  -nan(ind)
  MH2-50.1.1              1.00   -nan(ind)  -nan(ind)  -nan(ind)  -nan(ind)  -nan(ind)  -nan(ind)  -nan(ind)  -nan(ind)  -nan(ind)
  MH2-50.2                1.00   -nan(ind)  -nan(ind)  -nan(ind)  -nan(ind)  -nan(ind)  -nan(ind)  -nan(ind)  -nan(ind)  -nan(ind)
  MH2-50.2.1              1.00   -nan(ind)  -nan(ind)  -nan(ind)  -nan(ind)  -nan(ind)  -nan(ind)  -nan(ind)  -nan(ind)  -nan(ind)
  MH2-50.2.1.1            1.00   -nan(ind)  -nan(ind)  -nan(ind)  -nan(ind)  -nan(ind)  -nan(ind)  -nan(ind)  -nan(ind)  -nan(ind)
  MH2-50.3.1              1.00   -nan(ind)  -nan(ind)  -nan(ind)  -nan(ind)  -nan(ind)  -nan(ind)  -nan(ind)  -nan(ind)  -nan(ind)
  MH2-50.A1.1             1.00   -nan(ind)  -nan(ind)  -nan(ind)  -nan(ind)  -nan(ind)  -nan(ind)  -nan(ind)  -nan(ind)  -nan(ind)
  MH2-51.2                1.00   -nan(ind)  -nan(ind)  -nan(ind)  -nan(ind)  -nan(ind)  -nan(ind)  -nan(ind)  -nan(ind)  -nan(ind)
  MH2-52.1                1.00   -nan(ind)  -nan(ind)  -nan(ind)  -nan(ind)  -nan(ind)  -nan(ind)  -nan(ind)  -nan(ind)  -nan(ind)
  MH2-52.1.1              1.00   -nan(ind)  -nan(ind)  -nan(ind)  -nan(ind)  -nan(ind)  -nan(ind)  -nan(ind)  -nan(ind)  -nan(ind)
  MH2-52.2.1              1.00   -nan(ind)  -nan(ind)  -nan(ind)  -nan(ind)  -nan(ind)  -nan(ind)  -nan(ind)  -nan(ind)  -nan(ind)
  MH2-53.1                1.00   -nan(ind)  -nan(ind)  -nan(ind)  -nan(ind)  -nan(ind)  -nan(ind)  -nan(ind)  -nan(ind)  -nan(ind)
  MH2-54.1                1.00   -nan(ind)  -nan(ind)  -nan(ind)  -nan(ind)  -nan(ind)  -nan(ind)  -nan(ind)  -nan(ind)  -nan(ind)
  MH2-54.1.1              1.00   -nan(ind)  -nan(ind)  -nan(ind)  -nan(ind)  -nan(ind)  -nan(ind)  -nan(ind)  -nan(ind)  -nan(ind)
  MH2-54.2.2              1.00   -nan(ind)  -nan(ind)  -nan(ind)  -nan(ind)  -nan(ind)  -nan(ind)  -nan(ind)  -nan(ind)  -nan(ind)
  MH2-54.3.1              1.00   -nan(ind)  -nan(ind)  -nan(ind)  -nan(ind)  -nan(ind)  -nan(ind)  -nan(ind)  -nan(ind)  -nan(ind)
  MH2-55.1.1              1.00   -nan(ind)  -nan(ind)  -nan(ind)  -nan(ind)  -nan(ind)  -nan(ind)  -nan(ind)  -nan(ind)  -nan(ind)
  MH2-55.2                1.00   -nan(ind)  -nan(ind)  -nan(ind)  -nan(ind)  -nan(ind)  -nan(ind)  -nan(ind)  -nan(ind)  -nan(ind)
  MH2-56.1                1.00   -nan(ind)  -nan(ind)  -nan(ind)  -nan(ind)  -nan(ind)  -nan(ind)  -nan(ind)  -nan(ind)  -nan(ind)
  MH2-56.1.1              1.00   -nan(ind)  -nan(ind)  -nan(ind)  -nan(ind)  -nan(ind)  -nan(ind)  -nan(ind)  -nan(ind)  -nan(ind)
  MH2-56.2.1              1.00   -nan(ind)  -nan(ind)  -nan(ind)  -nan(ind)  -nan(ind)  -nan(ind)  -nan(ind)  -nan(ind)  -nan(ind)
  MH2-57.1                1.00   -nan(ind)  -nan(ind)  -nan(ind)  -nan(ind)  -nan(ind)  -nan(ind)  -nan(ind)  -nan(ind)  -nan(ind)
  MH2-57.1.1              1.00   -nan(ind)  -nan(ind)  -nan(ind)  -nan(ind)  -nan(ind)  -nan(ind)  -nan(ind)  -nan(ind)  -nan(ind)
  MH2-57.2.1.1            1.00   -nan(ind)  -nan(ind)  -nan(ind)  -nan(ind)  -nan(ind)  -nan(ind)  -nan(ind)  -nan(ind)  -nan(ind)
  MH2-57.2.2              1.00   -nan(ind)  -nan(ind)  -nan(ind)  -nan(ind)  -nan(ind)  -nan(ind)  -nan(ind)  -nan(ind)  -nan(ind)
  MH2-57.3.1              1.00   -nan(ind)  -nan(ind)  -nan(ind)  -nan(ind)  -nan(ind)  -nan(ind)  -nan(ind)  -nan(ind)  -nan(ind)
  MH2-58.1                1.00   -nan(ind)  -nan(ind)  -nan(ind)  -nan(ind)  -nan(ind)  -nan(ind)  -nan(ind)  -nan(ind)  -nan(ind)
  MH2-58.1.1              1.00   -nan(ind)  -nan(ind)  -nan(ind)  -nan(ind)  -nan(ind)  -nan(ind)  -nan(ind)  -nan(ind)  -nan(ind)
  MH2-58.2.1              1.00   -nan(ind)  -nan(ind)  -nan(ind)  -nan(ind)  -nan(ind)  -nan(ind)  -nan(ind)  -nan(ind)  -nan(ind)
  MH2-59.1.1              1.00   -nan(ind)  -nan(ind)  -nan(ind)  -nan(ind)  -nan(ind)  -nan(ind)  -nan(ind)  -nan(ind)  -nan(ind)
  MH2-59.2                1.00   -nan(ind)  -nan(ind)  -nan(ind)  -nan(ind)  -nan(ind)  -nan(ind)  -nan(ind)  -nan(ind)  -nan(ind)
  MH2-59.2.1              1.00   -nan(ind)  -nan(ind)  -nan(ind)  -nan(ind)  -nan(ind)  -nan(ind)  -nan(ind)  -nan(ind)  -nan(ind)
  MH2-6.1                 1.00   -nan(ind)  -nan(ind)  -nan(ind)  -nan(ind)  -nan(ind)  -nan(ind)  -nan(ind)  -nan(ind)  -nan(ind)
  MH2-60.1.1              1.00   -nan(ind)  -nan(ind)  -nan(ind)  -nan(ind)  -nan(ind)  -nan(ind)  -nan(ind)  -nan(ind)  -nan(ind)
  MH2-60.2                1.00   -nan(ind)  -nan(ind)  -nan(ind)  -nan(ind)  -nan(ind)  -nan(ind)  -nan(ind)  -nan(ind)  -nan(ind)
  MH2-61.1.1              1.00   -nan(ind)  -nan(ind)  -nan(ind)  -nan(ind)  -nan(ind)  -nan(ind)  -nan(ind)  -nan(ind)  -nan(ind)
  MH2-61.2                1.00   -nan(ind)  -nan(ind)  -nan(ind)  -nan(ind)  -nan(ind)  -nan(ind)  -nan(ind)  -nan(ind)  -nan(ind)
  MH2-61.2.1              1.00   -nan(ind)  -nan(ind)  -nan(ind)  -nan(ind)  -nan(ind)  -nan(ind)  -nan(ind)  -nan(ind)  -nan(ind)
  MH2-61.2.1.2            1.00   -nan(ind)  -nan(ind)  -nan(ind)  -nan(ind)  -nan(ind)  -nan(ind)  -nan(ind)  -nan(ind)  -nan(ind)
  MH2-61.3.1              1.00   -nan(ind)  -nan(ind)  -nan(ind)  -nan(ind)  -nan(ind)  -nan(ind)  -nan(ind)  -nan(ind)  -nan(ind)
  MH2-62.1.1              1.00   -nan(ind)  -nan(ind)  -nan(ind)  -nan(ind)  -nan(ind)  -nan(ind)  -nan(ind)  -nan(ind)  -nan(ind)
  MH2-62.2.1              1.00   -nan(ind)  -nan(ind)  -nan(ind)  -nan(ind)  -nan(ind)  -nan(ind)  -nan(ind)  -nan(ind)  -nan(ind)
  MH2-62.3                1.00   -nan(ind)  -nan(ind)  -nan(ind)  -nan(ind)  -nan(ind)  -nan(ind)  -nan(ind)  -nan(ind)  -nan(ind)
  MH2-62.3.1              1.00   -nan(ind)  -nan(ind)  -nan(ind)  -nan(ind)  -nan(ind)  -nan(ind)  -nan(ind)  -nan(ind)  -nan(ind)
  MH2-62.A1.2             1.00   -nan(ind)  -nan(ind)  -nan(ind)  -nan(ind)  -nan(ind)  -nan(ind)  -nan(ind)  -nan(ind)  -nan(ind)
  MH2-63.2                1.00   -nan(ind)  -nan(ind)  -nan(ind)  -nan(ind)  -nan(ind)  -nan(ind)  -nan(ind)  -nan(ind)  -nan(ind)
  MH2-64.1.1              1.00   -nan(ind)  -nan(ind)  -nan(ind)  -nan(ind)  -nan(ind)  -nan(ind)  -nan(ind)  -nan(ind)  -nan(ind)
  MH2-64.2                1.00   -nan(ind)  -nan(ind)  -nan(ind)  -nan(ind)  -nan(ind)  -nan(ind)  -nan(ind)  -nan(ind)  -nan(ind)
  MH2-64.2.1              1.00   -nan(ind)  -nan(ind)  -nan(ind)  -nan(ind)  -nan(ind)  -nan(ind)  -nan(ind)  -nan(ind)  -nan(ind)
  MH2-65.2                1.00   -nan(ind)  -nan(ind)  -nan(ind)  -nan(ind)  -nan(ind)  -nan(ind)  -nan(ind)  -nan(ind)  -nan(ind)
  MH2-66.1                1.00   -nan(ind)  -nan(ind)  -nan(ind)  -nan(ind)  -nan(ind)  -nan(ind)  -nan(ind)  -nan(ind)  -nan(ind)
  MH2-66.1.1              1.00   -nan(ind)  -nan(ind)  -nan(ind)  -nan(ind)  -nan(ind)  -nan(ind)  -nan(ind)  -nan(ind)  -nan(ind)
  MH2-66.2.1              1.00   -nan(ind)  -nan(ind)  -nan(ind)  -nan(ind)  -nan(ind)  -nan(ind)  -nan(ind)  -nan(ind)  -nan(ind)
  MH2-66.2.1.2            1.00   -nan(ind)  -nan(ind)  -nan(ind)  -nan(ind)  -nan(ind)  -nan(ind)  -nan(ind)  -nan(ind)  -nan(ind)
  MH2-66.3.1              1.00   -nan(ind)  -nan(ind)  -nan(ind)  -nan(ind)  -nan(ind)  -nan(ind)  -nan(ind)  -nan(ind)  -nan(ind)
  MH2-67.1                1.00   -nan(ind)  -nan(ind)  -nan(ind)  -nan(ind)  -nan(ind)  -nan(ind)  -nan(ind)  -nan(ind)  -nan(ind)
  MH2-67.1.1              1.00   -nan(ind)  -nan(ind)  -nan(ind)  -nan(ind)  -nan(ind)  -nan(ind)  -nan(ind)  -nan(ind)  -nan(ind)
  MH2-68.1                1.00   -nan(ind)  -nan(ind)  -nan(ind)  -nan(ind)  -nan(ind)  -nan(ind)  -nan(ind)  -nan(ind)  -nan(ind)
  MH2-69.1                1.00   -nan(ind)  -nan(ind)  -nan(ind)  -nan(ind)  -nan(ind)  -nan(ind)  -nan(ind)  -nan(ind)  -nan(ind)
  MH2-7.1                 1.00   -nan(ind)  -nan(ind)  -nan(ind)  -nan(ind)  -nan(ind)  -nan(ind)  -nan(ind)  -nan(ind)  -nan(ind)
  MH2-8.2                 1.00   -nan(ind)  -nan(ind)  -nan(ind)  -nan(ind)  -nan(ind)  -nan(ind)  -nan(ind)  -nan(ind)  -nan(ind)
  MH2-9.1                 1.00   -nan(ind)  -nan(ind)  -nan(ind)  -nan(ind)  -nan(ind)  -nan(ind)  -nan(ind)  -nan(ind)  -nan(ind)
  
  
  *************************
  Conduit Surcharge Summary
  *************************
  
  No conduits were surcharged.
  

  Analysis begun on:  Sat Nov 30 08:11:15 2019
  Analysis ended on:  Sat Nov 30 08:11:16 2019
  Total elapsed time: 00:00:01