
  EPA STORM WATER MANAGEMENT MODEL - VERSION 5.1 (Build 5.1.013)
  --------------------------------------------------------------

  WARNING 04: minimum elevation drop used for Conduit 1044
  WARNING 04: minimum elevation drop used for Conduit 1045
  WARNING 04: minimum elevation drop used for Conduit 111
  WARNING 03: negative offset ignored for Link 1117
  WARNING 03: negative offset ignored for Link 1121
  WARNING 04: minimum elevation drop used for Conduit 1121
  WARNING 04: minimum elevation drop used for Conduit 121
  WARNING 04: minimum elevation drop used for Conduit 157
  WARNING 03: negative offset ignored for Link 160
  WARNING 03: negative offset ignored for Link 1630
  WARNING 03: negative offset ignored for Link 165
  WARNING 04: minimum elevation drop used for Conduit 1658
  WARNING 04: minimum elevation drop used for Conduit 2057
  WARNING 03: negative offset ignored for Link 217
  WARNING 03: negative offset ignored for Link 2237
  WARNING 03: negative offset ignored for Link 2348
  WARNING 03: negative offset ignored for Link 2349
  WARNING 04: minimum elevation drop used for Conduit 2381
  WARNING 04: minimum elevation drop used for Conduit 2382
  WARNING 08: elevation drop exceeds length for Conduit 2388
  WARNING 03: negative offset ignored for Link 2401
  WARNING 04: minimum elevation drop used for Conduit 2401
  WARNING 03: negative offset ignored for Link 2402
  WARNING 04: minimum elevation drop used for Conduit 2428
  WARNING 04: minimum elevation drop used for Conduit 2492
  WARNING 03: negative offset ignored for Link 2558
  WARNING 03: negative offset ignored for Link 259
  WARNING 03: negative offset ignored for Link 2642
  WARNING 03: negative offset ignored for Link 2653
  WARNING 04: minimum elevation drop used for Conduit 2712
  WARNING 04: minimum elevation drop used for Conduit 2715
  WARNING 04: minimum elevation drop used for Conduit 2716
  WARNING 04: minimum elevation drop used for Conduit 2735
  WARNING 04: minimum elevation drop used for Conduit 2756
  WARNING 03: negative offset ignored for Link 29
  WARNING 03: negative offset ignored for Link 298
  WARNING 03: negative offset ignored for Link 301
  WARNING 03: negative offset ignored for Link 3055
  WARNING 04: minimum elevation drop used for Conduit 3086
  WARNING 04: minimum elevation drop used for Conduit 31
  WARNING 03: negative offset ignored for Link 3113
  WARNING 03: negative offset ignored for Link 3113
  WARNING 03: negative offset ignored for Link 3114
  WARNING 03: negative offset ignored for Link 3160
  WARNING 04: minimum elevation drop used for Conduit 3213
  WARNING 04: minimum elevation drop used for Conduit 3214
  WARNING 04: minimum elevation drop used for Conduit 3277
  WARNING 04: minimum elevation drop used for Conduit 3406
  WARNING 03: negative offset ignored for Link 3459
  WARNING 04: minimum elevation drop used for Conduit 3459
  WARNING 04: minimum elevation drop used for Conduit 3527
  WARNING 04: minimum elevation drop used for Conduit 3571
  WARNING 04: minimum elevation drop used for Conduit 3688
  WARNING 04: minimum elevation drop used for Conduit 3831
  WARNING 04: minimum elevation drop used for Conduit 3872
  WARNING 04: minimum elevation drop used for Conduit 3914
  WARNING 04: minimum elevation drop used for Conduit 3915
  WARNING 04: minimum elevation drop used for Conduit 3962
  WARNING 03: negative offset ignored for Link 406
  WARNING 03: negative offset ignored for Link 4226
  WARNING 03: negative offset ignored for Link 4228
  WARNING 03: negative offset ignored for Link 4246
  WARNING 03: negative offset ignored for Link 4252
  WARNING 04: minimum elevation drop used for Conduit 4252
  WARNING 03: negative offset ignored for Link 4253
  WARNING 04: minimum elevation drop used for Conduit 4282
  WARNING 03: negative offset ignored for Link 429
  WARNING 04: minimum elevation drop used for Conduit 4299
  WARNING 03: negative offset ignored for Link 430
  WARNING 03: negative offset ignored for Link 4313
  WARNING 03: negative offset ignored for Link 4351
  WARNING 03: negative offset ignored for Link 4362
  WARNING 03: negative offset ignored for Link 4416
  WARNING 03: negative offset ignored for Link 4421
  WARNING 03: negative offset ignored for Link 4422
  WARNING 03: negative offset ignored for Link 4438
  WARNING 04: minimum elevation drop used for Conduit 4496
  WARNING 03: negative offset ignored for Link 4581
  WARNING 03: negative offset ignored for Link 4582
  WARNING 03: negative offset ignored for Link 4588
  WARNING 03: negative offset ignored for Link 4592
  WARNING 03: negative offset ignored for Link 4658
  WARNING 03: negative offset ignored for Link 4675
  WARNING 03: negative offset ignored for Link 4676
  WARNING 03: negative offset ignored for Link 4676
  WARNING 03: negative offset ignored for Link 4679
  WARNING 03: negative offset ignored for Link 4680
  WARNING 03: negative offset ignored for Link 4686
  WARNING 04: minimum elevation drop used for Conduit 4695
  WARNING 04: minimum elevation drop used for Conduit 474
  WARNING 04: minimum elevation drop used for Conduit 4800
  WARNING 04: minimum elevation drop used for Conduit 4815
  WARNING 04: minimum elevation drop used for Conduit 5073
  WARNING 04: minimum elevation drop used for Conduit 5197
  WARNING 04: minimum elevation drop used for Conduit 5233
  WARNING 04: minimum elevation drop used for Conduit 5268
  WARNING 04: minimum elevation drop used for Conduit 5272
  WARNING 04: minimum elevation drop used for Conduit 5274
  WARNING 04: minimum elevation drop used for Conduit 5275
  WARNING 04: minimum elevation drop used for Conduit 5409
  WARNING 04: minimum elevation drop used for Conduit 5417
  WARNING 04: minimum elevation drop used for Conduit 5460
  WARNING 04: minimum elevation drop used for Conduit 5466
  WARNING 03: negative offset ignored for Link 5533
  WARNING 03: negative offset ignored for Link 5536
  WARNING 03: negative offset ignored for Link 5568
  WARNING 03: negative offset ignored for Link 5586
  WARNING 04: minimum elevation drop used for Conduit 5588
  WARNING 04: minimum elevation drop used for Conduit 5589
  WARNING 04: minimum elevation drop used for Conduit 5617
  WARNING 04: minimum elevation drop used for Conduit 5623
  WARNING 04: minimum elevation drop used for Conduit 5631
  WARNING 03: negative offset ignored for Link 5640
  WARNING 04: minimum elevation drop used for Conduit 5689
  WARNING 04: minimum elevation drop used for Conduit 5754
  WARNING 03: negative offset ignored for Link 5756
  WARNING 03: negative offset ignored for Link 5773
  WARNING 04: minimum elevation drop used for Conduit 5777
  WARNING 04: minimum elevation drop used for Conduit 5778
  WARNING 03: negative offset ignored for Link 5784
  WARNING 03: negative offset ignored for Link 5793
  WARNING 03: negative offset ignored for Link 5835
  WARNING 03: negative offset ignored for Link 5878
  WARNING 04: minimum elevation drop used for Conduit 5915
  WARNING 04: minimum elevation drop used for Conduit 5930
  WARNING 04: minimum elevation drop used for Conduit 5942
  WARNING 03: negative offset ignored for Link 5945
  WARNING 04: minimum elevation drop used for Conduit 595
  WARNING 04: minimum elevation drop used for Conduit 5956
  WARNING 04: minimum elevation drop used for Conduit 6030
  WARNING 04: minimum elevation drop used for Conduit 6104
  WARNING 04: minimum elevation drop used for Conduit 6155
  WARNING 03: negative offset ignored for Link 6184
  WARNING 03: negative offset ignored for Link 6185
  WARNING 03: negative offset ignored for Link 6185
  WARNING 04: minimum elevation drop used for Conduit 6194
  WARNING 03: negative offset ignored for Link 6208
  WARNING 04: minimum elevation drop used for Conduit 6220
  WARNING 03: negative offset ignored for Link 6246
  WARNING 04: minimum elevation drop used for Conduit 6250
  WARNING 03: negative offset ignored for Link 6282
  WARNING 04: minimum elevation drop used for Conduit 6282
  WARNING 03: negative offset ignored for Link 6298
  WARNING 03: negative offset ignored for Link 6355
  WARNING 03: negative offset ignored for Link 6375
  WARNING 03: negative offset ignored for Link 6404
  WARNING 03: negative offset ignored for Link 6405
  WARNING 04: minimum elevation drop used for Conduit 6441
  WARNING 04: minimum elevation drop used for Conduit 6447
  WARNING 04: minimum elevation drop used for Conduit 6455
  WARNING 04: minimum elevation drop used for Conduit 6458
  WARNING 04: minimum elevation drop used for Conduit 6480
  WARNING 04: minimum elevation drop used for Conduit 6481
  WARNING 04: minimum elevation drop used for Conduit 6486
  WARNING 04: minimum elevation drop used for Conduit 6502
  WARNING 04: minimum elevation drop used for Conduit 6539
  WARNING 03: negative offset ignored for Link 6617
  WARNING 04: minimum elevation drop used for Conduit 6626
  WARNING 04: minimum elevation drop used for Conduit 6650
  WARNING 04: minimum elevation drop used for Conduit 6692
  WARNING 04: minimum elevation drop used for Conduit 6709
  WARNING 04: minimum elevation drop used for Conduit 6745
  WARNING 04: minimum elevation drop used for Conduit 676
  WARNING 04: minimum elevation drop used for Conduit 6821
  WARNING 03: negative offset ignored for Link 683
  WARNING 03: negative offset ignored for Link 6861
  WARNING 03: negative offset ignored for Link 6886
  WARNING 03: negative offset ignored for Link 6887
  WARNING 03: negative offset ignored for Link 691
  WARNING 03: negative offset ignored for Link 692
  WARNING 03: negative offset ignored for Link 6929
  WARNING 03: negative offset ignored for Link 6943
  WARNING 03: negative offset ignored for Link 696
  WARNING 03: negative offset ignored for Link 6969
  WARNING 03: negative offset ignored for Link 7016
  WARNING 08: elevation drop exceeds length for Conduit 7065
  WARNING 04: minimum elevation drop used for Conduit 7082
  WARNING 03: negative offset ignored for Link 7171
  WARNING 04: minimum elevation drop used for Conduit 719
  WARNING 04: minimum elevation drop used for Conduit 7247
  WARNING 04: minimum elevation drop used for Conduit 7248
  WARNING 04: minimum elevation drop used for Conduit 7317
  WARNING 04: minimum elevation drop used for Conduit 7324
  WARNING 03: negative offset ignored for Link 7331
  WARNING 03: negative offset ignored for Link 7332
  WARNING 04: minimum elevation drop used for Conduit 7341
  WARNING 08: elevation drop exceeds length for Conduit 7342
  WARNING 03: negative offset ignored for Link 7351
  WARNING 04: minimum elevation drop used for Conduit 7386
  WARNING 08: elevation drop exceeds length for Conduit 7393
  WARNING 08: elevation drop exceeds length for Conduit 7394
  WARNING 04: minimum elevation drop used for Conduit 7416
  WARNING 04: minimum elevation drop used for Conduit 7428
  WARNING 04: minimum elevation drop used for Conduit 7429
  WARNING 04: minimum elevation drop used for Conduit 7447
  WARNING 04: minimum elevation drop used for Conduit 7463
  WARNING 04: minimum elevation drop used for Conduit 7464
  WARNING 04: minimum elevation drop used for Conduit 7473
  WARNING 04: minimum elevation drop used for Conduit 7516
  WARNING 04: minimum elevation drop used for Conduit 7535
  WARNING 04: minimum elevation drop used for Conduit 7568
  WARNING 04: minimum elevation drop used for Conduit 7572
  WARNING 04: minimum elevation drop used for Conduit 7573
  WARNING 03: negative offset ignored for Link 7574
  WARNING 04: minimum elevation drop used for Conduit 7574
  WARNING 04: minimum elevation drop used for Conduit 7586
  WARNING 04: minimum elevation drop used for Conduit 7590
  WARNING 04: minimum elevation drop used for Conduit 7598
  WARNING 04: minimum elevation drop used for Conduit 7601
  WARNING 04: minimum elevation drop used for Conduit 7602
  WARNING 04: minimum elevation drop used for Conduit 7603
  WARNING 04: minimum elevation drop used for Conduit 7605
  WARNING 04: minimum elevation drop used for Conduit 7616
  WARNING 04: minimum elevation drop used for Conduit 7620
  WARNING 04: minimum elevation drop used for Conduit 7630
  WARNING 04: minimum elevation drop used for Conduit 7632
  WARNING 04: minimum elevation drop used for Conduit 7634
  WARNING 04: minimum elevation drop used for Conduit 7648
  WARNING 04: minimum elevation drop used for Conduit 7658
  WARNING 04: minimum elevation drop used for Conduit 7681
  WARNING 04: minimum elevation drop used for Conduit 7701
  WARNING 04: minimum elevation drop used for Conduit 7722
  WARNING 03: negative offset ignored for Link 7732
  WARNING 04: minimum elevation drop used for Conduit 7733
  WARNING 04: minimum elevation drop used for Conduit 7734
  WARNING 04: minimum elevation drop used for Conduit 7735
  WARNING 04: minimum elevation drop used for Conduit 7736
  WARNING 04: minimum elevation drop used for Conduit 775
  WARNING 04: minimum elevation drop used for Conduit 7758
  WARNING 08: elevation drop exceeds length for Conduit 776
  WARNING 03: negative offset ignored for Link 7773
  WARNING 04: minimum elevation drop used for Conduit 7783
  WARNING 04: minimum elevation drop used for Conduit 7791
  WARNING 04: minimum elevation drop used for Conduit 7811
  WARNING 04: minimum elevation drop used for Conduit 7812
  WARNING 04: minimum elevation drop used for Conduit 7820
  WARNING 04: minimum elevation drop used for Conduit 7827
  WARNING 03: negative offset ignored for Link 7828
  WARNING 03: negative offset ignored for Link 7828
  WARNING 04: minimum elevation drop used for Conduit 7836
  WARNING 04: minimum elevation drop used for Conduit 7851
  WARNING 04: minimum elevation drop used for Conduit 7864
  WARNING 04: minimum elevation drop used for Conduit 7865
  WARNING 04: minimum elevation drop used for Conduit 7894
  WARNING 04: minimum elevation drop used for Conduit 7954
  WARNING 03: negative offset ignored for Link 7962
  WARNING 04: minimum elevation drop used for Conduit 7964
  WARNING 04: minimum elevation drop used for Conduit 7965
  WARNING 04: minimum elevation drop used for Conduit 7966
  WARNING 03: negative offset ignored for Link 7969
  WARNING 04: minimum elevation drop used for Conduit 7977
  WARNING 04: minimum elevation drop used for Conduit 7984
  WARNING 08: elevation drop exceeds length for Conduit 8
  WARNING 04: minimum elevation drop used for Conduit 8009
  WARNING 04: minimum elevation drop used for Conduit 8015
  WARNING 03: negative offset ignored for Link 8021
  WARNING 03: negative offset ignored for Link 8035
  WARNING 03: negative offset ignored for Link 8037
  WARNING 03: negative offset ignored for Link 8040
  WARNING 04: minimum elevation drop used for Conduit 8054
  WARNING 04: minimum elevation drop used for Conduit 8063
  WARNING 04: minimum elevation drop used for Conduit 8064
  WARNING 03: negative offset ignored for Link 8074
  WARNING 03: negative offset ignored for Link 8092
  WARNING 03: negative offset ignored for Link 8092
  WARNING 04: minimum elevation drop used for Conduit CDT-111
  WARNING 04: minimum elevation drop used for Conduit CDT-113
  WARNING 03: negative offset ignored for Link CDT-117
  WARNING 04: minimum elevation drop used for Conduit CDT-119
  WARNING 08: elevation drop exceeds length for Conduit CDT-127
  WARNING 04: minimum elevation drop used for Conduit CDT-153
  WARNING 03: negative offset ignored for Link CDT-195
  WARNING 03: negative offset ignored for Link CDT-207
  WARNING 04: minimum elevation drop used for Conduit CDT-225
  WARNING 03: negative offset ignored for Link CDT-233
  WARNING 03: negative offset ignored for Link CDT-233
  WARNING 04: minimum elevation drop used for Conduit CDT-281
  WARNING 03: negative offset ignored for Link CDT-283
  WARNING 03: negative offset ignored for Link CDT-283
  WARNING 04: minimum elevation drop used for Conduit CDT-285
  WARNING 03: negative offset ignored for Link CDT-287
  WARNING 03: negative offset ignored for Link CDT-289
  WARNING 04: minimum elevation drop used for Conduit CDT-289
  WARNING 03: negative offset ignored for Link CDT-327
  WARNING 03: negative offset ignored for Link CDT-327
  WARNING 03: negative offset ignored for Link CDT-371
  WARNING 03: negative offset ignored for Link CDT-371
  WARNING 03: negative offset ignored for Link CDT-43
  WARNING 03: negative offset ignored for Link CDT-43
  WARNING 04: minimum elevation drop used for Conduit CDT-73
  WARNING 04: minimum elevation drop used for Conduit CDT-83
  WARNING 02: maximum depth increased for Node 105
  WARNING 02: maximum depth increased for Node 113
  WARNING 02: maximum depth increased for Node 114
  WARNING 02: maximum depth increased for Node 122
  WARNING 02: maximum depth increased for Node 13
  WARNING 02: maximum depth increased for Node 150
  WARNING 02: maximum depth increased for Node 162
  WARNING 02: maximum depth increased for Node 1757
  WARNING 02: maximum depth increased for Node 182
  WARNING 02: maximum depth increased for Node 183
  WARNING 02: maximum depth increased for Node 3082
  WARNING 02: maximum depth increased for Node 31
  WARNING 02: maximum depth increased for Node 3485
  WARNING 02: maximum depth increased for Node 3552
  WARNING 02: maximum depth increased for Node 3625
  WARNING 02: maximum depth increased for Node 37
  WARNING 02: maximum depth increased for Node 3805
  WARNING 02: maximum depth increased for Node 3914
  WARNING 02: maximum depth increased for Node 4683
  WARNING 02: maximum depth increased for Node 4867
  WARNING 02: maximum depth increased for Node 5530
  WARNING 02: maximum depth increased for Node 5694
  WARNING 02: maximum depth increased for Node 57
  WARNING 02: maximum depth increased for Node 5791
  WARNING 02: maximum depth increased for Node 5837
  WARNING 02: maximum depth increased for Node 62
  WARNING 02: maximum depth increased for Node 628
  WARNING 02: maximum depth increased for Node 7083
  WARNING 02: maximum depth increased for Node 71
  WARNING 02: maximum depth increased for Node 7165
  WARNING 02: maximum depth increased for Node 7548
  WARNING 02: maximum depth increased for Node 7643
  WARNING 02: maximum depth increased for Node 7661
  WARNING 02: maximum depth increased for Node 78
  WARNING 02: maximum depth increased for Node 99
  WARNING 02: maximum depth increased for Node JCT-1280
  WARNING 02: maximum depth increased for Node JCT-1520
  WARNING 02: maximum depth increased for Node JCT-1890
  WARNING 02: maximum depth increased for Node JCT-2432
  WARNING 02: maximum depth increased for Node JCT-2436
  WARNING 02: maximum depth increased for Node JCT-2568
  WARNING 02: maximum depth increased for Node JCT-2598
  WARNING 02: maximum depth increased for Node JCT-2636
  WARNING 02: maximum depth increased for Node JCT-2703
  WARNING 02: maximum depth increased for Node JCT-2705
  WARNING 02: maximum depth increased for Node JCT-2743
  
  **********************           Volume        Volume
  Rainfall Dependent I/I        acre-feet      10^6 gal
  **********************        ---------     ---------
  Sewershed Rainfall ......      2775.089       904.304
  RDII Produced ...........         8.033         2.618
  RDII Ratio ..............         0.003
  
  
  *********************************************************
  NOTE: The summary statistics displayed in this report are
  based on results found at every computational time step,  
  not just on results from each reporting time step.
  *********************************************************
  
  ****************
  Analysis Options
  ****************
  Flow Units ............... GPM
  Process Models:
    Rainfall/Runoff ........ YES
    RDII ................... YES
    Snowmelt ............... NO
    Groundwater ............ NO
    Flow Routing ........... YES
    Ponding Allowed ........ NO
    Water Quality .......... YES
  Infiltration Method ...... HORTON
  Flow Routing Method ...... DYNWAVE
  Surcharge Method ......... EXTRAN
  Starting Date ............ 04/21/2012 00:00:00
  Ending Date .............. 04/26/2012 00:00:00
  Antecedent Dry Days ...... 5.0
  Report Time Step ......... 00:15:00
  Wet Time Step ............ 00:01:00
  Dry Time Step ............ 00:01:00
  Routing Time Step ........ 30.00 sec
  Variable Time Step ....... YES
  Maximum Trials ........... 8
  Number of Threads ........ 1
  Head Tolerance ........... 0.005000 ft
  
  
  **************************        Volume         Depth
  Runoff Quantity Continuity     acre-feet        inches
  **************************     ---------       -------
  Total Precipitation ......         0.000         0.000
  Evaporation Loss .........         0.000         0.000
  Infiltration Loss ........         0.000         0.000
  Surface Runoff ...........         0.000         0.000
  Final Storage ............         0.000         0.000
  Continuity Error (%) .....         0.000
  
  
  **************************          RDII           DWF        RUNOFF
  Runoff Quality Continuity            lbs           lbs           lbs
  **************************    ----------    ----------    ----------
  Initial Buildup ..........         0.000         0.000         0.000
  Surface Buildup ..........         0.000         0.000         0.000
  Wet Deposition ...........         0.000         0.000         0.000
  Sweeping Removal .........         0.000         0.000         0.000
  Infiltration Loss ........         0.000         0.000         0.000
  BMP Removal ..............         0.000         0.000         0.000
  Surface Runoff ...........         0.000         0.000         0.000
  Remaining Buildup ........         0.000         0.000         0.000
  Continuity Error (%) .....         0.000         0.000         0.000
  
  
  **************************        Volume        Volume
  Flow Routing Continuity        acre-feet      10^6 gal
  **************************     ---------     ---------
  Dry Weather Inflow .......         0.000         0.000
  Wet Weather Inflow .......         0.000         0.000
  Groundwater Inflow .......         0.000         0.000
  RDII Inflow ..............         0.000         0.000
  External Inflow ..........         0.000         0.000
  External Outflow .........         0.000         0.000
  Flooding Loss ............         0.000         0.000
  Evaporation Loss .........         0.000         0.000
  Exfiltration Loss ........         0.000         0.000
  Initial Stored Volume ....         0.000         0.000
  Final Stored Volume ......         0.000         0.000
  Continuity Error (%) .....         0.000
  
  
  **************************          RDII           DWF        RUNOFF
  Quality Routing Continuity           lbs           lbs           lbs
  **************************    ----------    ----------    ----------
  Dry Weather Inflow .......         0.000         0.000         0.000
  Wet Weather Inflow .......         0.000         0.000         0.000
  Groundwater Inflow .......         0.000         0.000         0.000
  RDII Inflow ..............         0.000         0.000         0.000
  External Inflow ..........         0.000         0.000         0.000
  External Outflow .........         0.000         0.000         0.000
  Flooding Loss ............         0.000         0.000         0.000
  Exfiltration Loss ........         0.000         0.000         0.000
  Mass Reacted .............         0.000         0.000         0.000
  Initial Stored Mass ......         0.000         0.000         0.000
  Final Stored Mass ........         0.000         0.000         0.000
  Continuity Error (%) .....         0.000         0.000         0.000
  
  
  ***************************
  Time-Step Critical Elements
  ***************************
  None
  
  
  ********************************
  Highest Flow Instability Indexes
  ********************************
  All links are stable.
  
  
  ***************************
  Subcatchment Runoff Summary
  ***************************
  
  ------------------------------------------------------------------------------------------------------------------------------
                            Total      Total      Total      Total     Imperv       Perv      Total       Total     Peak  Runoff
                           Precip      Runon       Evap      Infil     Runoff     Runoff     Runoff      Runoff   Runoff   Coeff
  Subcatchment                 in         in         in         in         in         in         in    10^6 gal      GPM
  ------------------------------------------------------------------------------------------------------------------------------
  SUB-10                     0.00       0.00       0.00       0.00       0.00       0.00       0.00        0.00     0.00   0.000
  SUB-100                    0.00       0.00       0.00       0.00       0.00       0.00       0.00        0.00     0.00   0.000
  SUB-102                    0.00       0.00       0.00       0.00       0.00       0.00       0.00        0.00     0.00   0.000
  SUB-104                    0.00       0.00       0.00       0.00       0.00       0.00       0.00        0.00     0.00   0.000
  SUB-106                    0.00       0.00       0.00       0.00       0.00       0.00       0.00        0.00     0.00   0.000
  SUB-108                    0.00       0.00       0.00       0.00       0.00       0.00       0.00        0.00     0.00   0.000
  SUB-110                    0.00       0.00       0.00       0.00       0.00       0.00       0.00        0.00     0.00   0.000
  SUB-112                    0.00       0.00       0.00       0.00       0.00       0.00       0.00        0.00     0.00   0.000
  SUB-114                    0.00       0.00       0.00       0.00       0.00       0.00       0.00        0.00     0.00   0.000
  SUB-116                    0.00       0.00       0.00       0.00       0.00       0.00       0.00        0.00     0.00   0.000
  SUB-12                     0.00       0.00       0.00       0.00       0.00       0.00       0.00        0.00     0.00   0.000
  SUB-120                    0.00       0.00       0.00       0.00       0.00       0.00       0.00        0.00     0.00   0.000
  SUB-122                    0.00       0.00       0.00       0.00       0.00       0.00       0.00        0.00     0.00   0.000
  SUB-124                    0.00       0.00       0.00       0.00       0.00       0.00       0.00        0.00     0.00   0.000
  SUB-126                    0.00       0.00       0.00       0.00       0.00       0.00       0.00        0.00     0.00   0.000
  SUB-128                    0.00       0.00       0.00       0.00       0.00       0.00       0.00        0.00     0.00   0.000
  SUB-130                    0.00       0.00       0.00       0.00       0.00       0.00       0.00        0.00     0.00   0.000
  SUB-132                    0.00       0.00       0.00       0.00       0.00       0.00       0.00        0.00     0.00   0.000
  SUB-134                    0.00       0.00       0.00       0.00       0.00       0.00       0.00        0.00     0.00   0.000
  SUB-136                    0.00       0.00       0.00       0.00       0.00       0.00       0.00        0.00     0.00   0.000
  SUB-138                    0.00       0.00       0.00       0.00       0.00       0.00       0.00        0.00     0.00   0.000
  SUB-14                     0.00       0.00       0.00       0.00       0.00       0.00       0.00        0.00     0.00   0.000
  SUB-140                    0.00       0.00       0.00       0.00       0.00       0.00       0.00        0.00     0.00   0.000
  SUB-142                    0.00       0.00       0.00       0.00       0.00       0.00       0.00        0.00     0.00   0.000
  SUB-146                    0.00       0.00       0.00       0.00       0.00       0.00       0.00        0.00     0.00   0.000
  SUB-148                    0.00       0.00       0.00       0.00       0.00       0.00       0.00        0.00     0.00   0.000
  SUB-150                    0.00       0.00       0.00       0.00       0.00       0.00       0.00        0.00     0.00   0.000
  SUB-152                    0.00       0.00       0.00       0.00       0.00       0.00       0.00        0.00     0.00   0.000
  SUB-154                    0.00       0.00       0.00       0.00       0.00       0.00       0.00        0.00     0.00   0.000
  SUB-156                    0.00       0.00       0.00       0.00       0.00       0.00       0.00        0.00     0.00   0.000
  SUB-158                    0.00       0.00       0.00       0.00       0.00       0.00       0.00        0.00     0.00   0.000
  SUB-16                     0.00       0.00       0.00       0.00       0.00       0.00       0.00        0.00     0.00   0.000
  SUB-160                    0.00       0.00       0.00       0.00       0.00       0.00       0.00        0.00     0.00   0.000
  SUB-162                    0.00       0.00       0.00       0.00       0.00       0.00       0.00        0.00     0.00   0.000
  SUB-164                    0.00       0.00       0.00       0.00       0.00       0.00       0.00        0.00     0.00   0.000
  SUB-166                    0.00       0.00       0.00       0.00       0.00       0.00       0.00        0.00     0.00   0.000
  SUB-168                    0.00       0.00       0.00       0.00       0.00       0.00       0.00        0.00     0.00   0.000
  SUB-170                    0.00       0.00       0.00       0.00       0.00       0.00       0.00        0.00     0.00   0.000
  SUB-172                    0.00       0.00       0.00       0.00       0.00       0.00       0.00        0.00     0.00   0.000
  SUB-174                    0.00       0.00       0.00       0.00       0.00       0.00       0.00        0.00     0.00   0.000
  SUB-176                    0.00       0.00       0.00       0.00       0.00       0.00       0.00        0.00     0.00   0.000
  SUB-178                    0.00       0.00       0.00       0.00       0.00       0.00       0.00        0.00     0.00   0.000
  SUB-18                     0.00       0.00       0.00       0.00       0.00       0.00       0.00        0.00     0.00   0.000
  SUB-180                    0.00       0.00       0.00       0.00       0.00       0.00       0.00        0.00     0.00   0.000
  SUB-182                    0.00       0.00       0.00       0.00       0.00       0.00       0.00        0.00     0.00   0.000
  SUB-184                    0.00       0.00       0.00       0.00       0.00       0.00       0.00        0.00     0.00   0.000
  SUB-186                    0.00       0.00       0.00       0.00       0.00       0.00       0.00        0.00     0.00   0.000
  SUB-188                    0.00       0.00       0.00       0.00       0.00       0.00       0.00        0.00     0.00   0.000
  SUB-190                    0.00       0.00       0.00       0.00       0.00       0.00       0.00        0.00     0.00   0.000
  SUB-192                    0.00       0.00       0.00       0.00       0.00       0.00       0.00        0.00     0.00   0.000
  SUB-194                    0.00       0.00       0.00       0.00       0.00       0.00       0.00        0.00     0.00   0.000
  SUB-196                    0.00       0.00       0.00       0.00       0.00       0.00       0.00        0.00     0.00   0.000
  SUB-198                    0.00       0.00       0.00       0.00       0.00       0.00       0.00        0.00     0.00   0.000
  SUB-20                     0.00       0.00       0.00       0.00       0.00       0.00       0.00        0.00     0.00   0.000
  SUB-200                    0.00       0.00       0.00       0.00       0.00       0.00       0.00        0.00     0.00   0.000
  SUB-204                    0.00       0.00       0.00       0.00       0.00       0.00       0.00        0.00     0.00   0.000
  SUB-206                    0.00       0.00       0.00       0.00       0.00       0.00       0.00        0.00     0.00   0.000
  SUB-208                    0.00       0.00       0.00       0.00       0.00       0.00       0.00        0.00     0.00   0.000
  SUB-210                    0.00       0.00       0.00       0.00       0.00       0.00       0.00        0.00     0.00   0.000
  SUB-212                    0.00       0.00       0.00       0.00       0.00       0.00       0.00        0.00     0.00   0.000
  SUB-214                    0.00       0.00       0.00       0.00       0.00       0.00       0.00        0.00     0.00   0.000
  SUB-216                    0.00       0.00       0.00       0.00       0.00       0.00       0.00        0.00     0.00   0.000
  SUB-218                    0.00       0.00       0.00       0.00       0.00       0.00       0.00        0.00     0.00   0.000
  SUB-22                     0.00       0.00       0.00       0.00       0.00       0.00       0.00        0.00     0.00   0.000
  SUB-220                    0.00       0.00       0.00       0.00       0.00       0.00       0.00        0.00     0.00   0.000
  SUB-222                    0.00       0.00       0.00       0.00       0.00       0.00       0.00        0.00     0.00   0.000
  SUB-224                    0.00       0.00       0.00       0.00       0.00       0.00       0.00        0.00     0.00   0.000
  SUB-226                    0.00       0.00       0.00       0.00       0.00       0.00       0.00        0.00     0.00   0.000
  SUB-228                    0.00       0.00       0.00       0.00       0.00       0.00       0.00        0.00     0.00   0.000
  SUB-230                    0.00       0.00       0.00       0.00       0.00       0.00       0.00        0.00     0.00   0.000
  SUB-232                    0.00       0.00       0.00       0.00       0.00       0.00       0.00        0.00     0.00   0.000
  SUB-234                    0.00       0.00       0.00       0.00       0.00       0.00       0.00        0.00     0.00   0.000
  SUB-236                    0.00       0.00       0.00       0.00       0.00       0.00       0.00        0.00     0.00   0.000
  SUB-238                    0.00       0.00       0.00       0.00       0.00       0.00       0.00        0.00     0.00   0.000
  SUB-24                     0.00       0.00       0.00       0.00       0.00       0.00       0.00        0.00     0.00   0.000
  SUB-240                    0.00       0.00       0.00       0.00       0.00       0.00       0.00        0.00     0.00   0.000
  SUB-242                    0.00       0.00       0.00       0.00       0.00       0.00       0.00        0.00     0.00   0.000
  SUB-244                    0.00       0.00       0.00       0.00       0.00       0.00       0.00        0.00     0.00   0.000
  SUB-246                    0.00       0.00       0.00       0.00       0.00       0.00       0.00        0.00     0.00   0.000
  SUB-248                    0.00       0.00       0.00       0.00       0.00       0.00       0.00        0.00     0.00   0.000
  SUB-250                    0.00       0.00       0.00       0.00       0.00       0.00       0.00        0.00     0.00   0.000
  SUB-252                    0.00       0.00       0.00       0.00       0.00       0.00       0.00        0.00     0.00   0.000
  SUB-254                    0.00       0.00       0.00       0.00       0.00       0.00       0.00        0.00     0.00   0.000
  SUB-256                    0.00       0.00       0.00       0.00       0.00       0.00       0.00        0.00     0.00   0.000
  SUB-258                    0.00       0.00       0.00       0.00       0.00       0.00       0.00        0.00     0.00   0.000
  SUB-26                     0.00       0.00       0.00       0.00       0.00       0.00       0.00        0.00     0.00   0.000
  SUB-260                    0.00       0.00       0.00       0.00       0.00       0.00       0.00        0.00     0.00   0.000
  SUB-262                    0.00       0.00       0.00       0.00       0.00       0.00       0.00        0.00     0.00   0.000
  SUB-266                    0.00       0.00       0.00       0.00       0.00       0.00       0.00        0.00     0.00   0.000
  SUB-268                    0.00       0.00       0.00       0.00       0.00       0.00       0.00        0.00     0.00   0.000
  SUB-270                    0.00       0.00       0.00       0.00       0.00       0.00       0.00        0.00     0.00   0.000
  SUB-272                    0.00       0.00       0.00       0.00       0.00       0.00       0.00        0.00     0.00   0.000
  SUB-274                    0.00       0.00       0.00       0.00       0.00       0.00       0.00        0.00     0.00   0.000
  SUB-276                    0.00       0.00       0.00       0.00       0.00       0.00       0.00        0.00     0.00   0.000
  SUB-278                    0.00       0.00       0.00       0.00       0.00       0.00       0.00        0.00     0.00   0.000
  SUB-28                     0.00       0.00       0.00       0.00       0.00       0.00       0.00        0.00     0.00   0.000
  SUB-280                    0.00       0.00       0.00       0.00       0.00       0.00       0.00        0.00     0.00   0.000
  SUB-282                    0.00       0.00       0.00       0.00       0.00       0.00       0.00        0.00     0.00   0.000
  SUB-284                    0.00       0.00       0.00       0.00       0.00       0.00       0.00        0.00     0.00   0.000
  SUB-286                    0.00       0.00       0.00       0.00       0.00       0.00       0.00        0.00     0.00   0.000
  SUB-288                    0.00       0.00       0.00       0.00       0.00       0.00       0.00        0.00     0.00   0.000
  SUB-290                    0.00       0.00       0.00       0.00       0.00       0.00       0.00        0.00     0.00   0.000
  SUB-292                    0.00       0.00       0.00       0.00       0.00       0.00       0.00        0.00     0.00   0.000
  SUB-294                    0.00       0.00       0.00       0.00       0.00       0.00       0.00        0.00     0.00   0.000
  SUB-296                    0.00       0.00       0.00       0.00       0.00       0.00       0.00        0.00     0.00   0.000
  SUB-298                    0.00       0.00       0.00       0.00       0.00       0.00       0.00        0.00     0.00   0.000
  SUB-30                     0.00       0.00       0.00       0.00       0.00       0.00       0.00        0.00     0.00   0.000
  SUB-302                    0.00       0.00       0.00       0.00       0.00       0.00       0.00        0.00     0.00   0.000
  SUB-304                    0.00       0.00       0.00       0.00       0.00       0.00       0.00        0.00     0.00   0.000
  SUB-306                    0.00       0.00       0.00       0.00       0.00       0.00       0.00        0.00     0.00   0.000
  SUB-308                    0.00       0.00       0.00       0.00       0.00       0.00       0.00        0.00     0.00   0.000
  SUB-310                    0.00       0.00       0.00       0.00       0.00       0.00       0.00        0.00     0.00   0.000
  SUB-312                    0.00       0.00       0.00       0.00       0.00       0.00       0.00        0.00     0.00   0.000
  SUB-314                    0.00       0.00       0.00       0.00       0.00       0.00       0.00        0.00     0.00   0.000
  SUB-316                    0.00       0.00       0.00       0.00       0.00       0.00       0.00        0.00     0.00   0.000
  SUB-318                    0.00       0.00       0.00       0.00       0.00       0.00       0.00        0.00     0.00   0.000
  SUB-32                     0.00       0.00       0.00       0.00       0.00       0.00       0.00        0.00     0.00   0.000
  SUB-320                    0.00       0.00       0.00       0.00       0.00       0.00       0.00        0.00     0.00   0.000
  SUB-322                    0.00       0.00       0.00       0.00       0.00       0.00       0.00        0.00     0.00   0.000
  SUB-324                    0.00       0.00       0.00       0.00       0.00       0.00       0.00        0.00     0.00   0.000
  SUB-326                    0.00       0.00       0.00       0.00       0.00       0.00       0.00        0.00     0.00   0.000
  SUB-328                    0.00       0.00       0.00       0.00       0.00       0.00       0.00        0.00     0.00   0.000
  SUB-330                    0.00       0.00       0.00       0.00       0.00       0.00       0.00        0.00     0.00   0.000
  SUB-332                    0.00       0.00       0.00       0.00       0.00       0.00       0.00        0.00     0.00   0.000
  SUB-334                    0.00       0.00       0.00       0.00       0.00       0.00       0.00        0.00     0.00   0.000
  SUB-336                    0.00       0.00       0.00       0.00       0.00       0.00       0.00        0.00     0.00   0.000
  SUB-338                    0.00       0.00       0.00       0.00       0.00       0.00       0.00        0.00     0.00   0.000
  SUB-34                     0.00       0.00       0.00       0.00       0.00       0.00       0.00        0.00     0.00   0.000
  SUB-340                    0.00       0.00       0.00       0.00       0.00       0.00       0.00        0.00     0.00   0.000
  SUB-342                    0.00       0.00       0.00       0.00       0.00       0.00       0.00        0.00     0.00   0.000
  SUB-344                    0.00       0.00       0.00       0.00       0.00       0.00       0.00        0.00     0.00   0.000
  SUB-346                    0.00       0.00       0.00       0.00       0.00       0.00       0.00        0.00     0.00   0.000
  SUB-348                    0.00       0.00       0.00       0.00       0.00       0.00       0.00        0.00     0.00   0.000
  SUB-350                    0.00       0.00       0.00       0.00       0.00       0.00       0.00        0.00     0.00   0.000
  SUB-352                    0.00       0.00       0.00       0.00       0.00       0.00       0.00        0.00     0.00   0.000
  SUB-354                    0.00       0.00       0.00       0.00       0.00       0.00       0.00        0.00     0.00   0.000
  SUB-356                    0.00       0.00       0.00       0.00       0.00       0.00       0.00        0.00     0.00   0.000
  SUB-358                    0.00       0.00       0.00       0.00       0.00       0.00       0.00        0.00     0.00   0.000
  SUB-36                     0.00       0.00       0.00       0.00       0.00       0.00       0.00        0.00     0.00   0.000
  SUB-360                    0.00       0.00       0.00       0.00       0.00       0.00       0.00        0.00     0.00   0.000
  SUB-362                    0.00       0.00       0.00       0.00       0.00       0.00       0.00        0.00     0.00   0.000
  SUB-364                    0.00       0.00       0.00       0.00       0.00       0.00       0.00        0.00     0.00   0.000
  SUB-366                    0.00       0.00       0.00       0.00       0.00       0.00       0.00        0.00     0.00   0.000
  SUB-368                    0.00       0.00       0.00       0.00       0.00       0.00       0.00        0.00     0.00   0.000
  SUB-370                    0.00       0.00       0.00       0.00       0.00       0.00       0.00        0.00     0.00   0.000
  SUB-372                    0.00       0.00       0.00       0.00       0.00       0.00       0.00        0.00     0.00   0.000
  SUB-374                    0.00       0.00       0.00       0.00       0.00       0.00       0.00        0.00     0.00   0.000
  SUB-376                    0.00       0.00       0.00       0.00       0.00       0.00       0.00        0.00     0.00   0.000
  SUB-378                    0.00       0.00       0.00       0.00       0.00       0.00       0.00        0.00     0.00   0.000
  SUB-38                     0.00       0.00       0.00       0.00       0.00       0.00       0.00        0.00     0.00   0.000
  SUB-380                    0.00       0.00       0.00       0.00       0.00       0.00       0.00        0.00     0.00   0.000
  SUB-382                    0.00       0.00       0.00       0.00       0.00       0.00       0.00        0.00     0.00   0.000
  SUB-384                    0.00       0.00       0.00       0.00       0.00       0.00       0.00        0.00     0.00   0.000
  SUB-386                    0.00       0.00       0.00       0.00       0.00       0.00       0.00        0.00     0.00   0.000
  SUB-388                    0.00       0.00       0.00       0.00       0.00       0.00       0.00        0.00     0.00   0.000
  SUB-390                    0.00       0.00       0.00       0.00       0.00       0.00       0.00        0.00     0.00   0.000
  SUB-392                    0.00       0.00       0.00       0.00       0.00       0.00       0.00        0.00     0.00   0.000
  SUB-394                    0.00       0.00       0.00       0.00       0.00       0.00       0.00        0.00     0.00   0.000
  SUB-396                    0.00       0.00       0.00       0.00       0.00       0.00       0.00        0.00     0.00   0.000
  SUB-398                    0.00       0.00       0.00       0.00       0.00       0.00       0.00        0.00     0.00   0.000
  SUB-40                     0.00       0.00       0.00       0.00       0.00       0.00       0.00        0.00     0.00   0.000
  SUB-400                    0.00       0.00       0.00       0.00       0.00       0.00       0.00        0.00     0.00   0.000
  SUB-402                    0.00       0.00       0.00       0.00       0.00       0.00       0.00        0.00     0.00   0.000
  SUB-404                    0.00       0.00       0.00       0.00       0.00       0.00       0.00        0.00     0.00   0.000
  SUB-406                    0.00       0.00       0.00       0.00       0.00       0.00       0.00        0.00     0.00   0.000
  SUB-408                    0.00       0.00       0.00       0.00       0.00       0.00       0.00        0.00     0.00   0.000
  SUB-410                    0.00       0.00       0.00       0.00       0.00       0.00       0.00        0.00     0.00   0.000
  SUB-412                    0.00       0.00       0.00       0.00       0.00       0.00       0.00        0.00     0.00   0.000
  SUB-414                    0.00       0.00       0.00       0.00       0.00       0.00       0.00        0.00     0.00   0.000
  SUB-416                    0.00       0.00       0.00       0.00       0.00       0.00       0.00        0.00     0.00   0.000
  SUB-418                    0.00       0.00       0.00       0.00       0.00       0.00       0.00        0.00     0.00   0.000
  SUB-42                     0.00       0.00       0.00       0.00       0.00       0.00       0.00        0.00     0.00   0.000
  SUB-420                    0.00       0.00       0.00       0.00       0.00       0.00       0.00        0.00     0.00   0.000
  SUB-422                    0.00       0.00       0.00       0.00       0.00       0.00       0.00        0.00     0.00   0.000
  SUB-424                    0.00       0.00       0.00       0.00       0.00       0.00       0.00        0.00     0.00   0.000
  SUB-426                    0.00       0.00       0.00       0.00       0.00       0.00       0.00        0.00     0.00   0.000
  SUB-428                    0.00       0.00       0.00       0.00       0.00       0.00       0.00        0.00     0.00   0.000
  SUB-430                    0.00       0.00       0.00       0.00       0.00       0.00       0.00        0.00     0.00   0.000
  SUB-432                    0.00       0.00       0.00       0.00       0.00       0.00       0.00        0.00     0.00   0.000
  SUB-434                    0.00       0.00       0.00       0.00       0.00       0.00       0.00        0.00     0.00   0.000
  SUB-436                    0.00       0.00       0.00       0.00       0.00       0.00       0.00        0.00     0.00   0.000
  SUB-438                    0.00       0.00       0.00       0.00       0.00       0.00       0.00        0.00     0.00   0.000
  SUB-440                    0.00       0.00       0.00       0.00       0.00       0.00       0.00        0.00     0.00   0.000
  SUB-442                    0.00       0.00       0.00       0.00       0.00       0.00       0.00        0.00     0.00   0.000
  SUB-444                    0.00       0.00       0.00       0.00       0.00       0.00       0.00        0.00     0.00   0.000
  SUB-446                    0.00       0.00       0.00       0.00       0.00       0.00       0.00        0.00     0.00   0.000
  SUB-448                    0.00       0.00       0.00       0.00       0.00       0.00       0.00        0.00     0.00   0.000
  SUB-450                    0.00       0.00       0.00       0.00       0.00       0.00       0.00        0.00     0.00   0.000
  SUB-452                    0.00       0.00       0.00       0.00       0.00       0.00       0.00        0.00     0.00   0.000
  SUB-456                    0.00       0.00       0.00       0.00       0.00       0.00       0.00        0.00     0.00   0.000
  SUB-458                    0.00       0.00       0.00       0.00       0.00       0.00       0.00        0.00     0.00   0.000
  SUB-46                     0.00       0.00       0.00       0.00       0.00       0.00       0.00        0.00     0.00   0.000
  SUB-460                    0.00       0.00       0.00       0.00       0.00       0.00       0.00        0.00     0.00   0.000
  SUB-462                    0.00       0.00       0.00       0.00       0.00       0.00       0.00        0.00     0.00   0.000
  SUB-464                    0.00       0.00       0.00       0.00       0.00       0.00       0.00        0.00     0.00   0.000
  SUB-466                    0.00       0.00       0.00       0.00       0.00       0.00       0.00        0.00     0.00   0.000
  SUB-468                    0.00       0.00       0.00       0.00       0.00       0.00       0.00        0.00     0.00   0.000
  SUB-470                    0.00       0.00       0.00       0.00       0.00       0.00       0.00        0.00     0.00   0.000
  SUB-472                    0.00       0.00       0.00       0.00       0.00       0.00       0.00        0.00     0.00   0.000
  SUB-474                    0.00       0.00       0.00       0.00       0.00       0.00       0.00        0.00     0.00   0.000
  SUB-476                    0.00       0.00       0.00       0.00       0.00       0.00       0.00        0.00     0.00   0.000
  SUB-478                    0.00       0.00       0.00       0.00       0.00       0.00       0.00        0.00     0.00   0.000
  SUB-48                     0.00       0.00       0.00       0.00       0.00       0.00       0.00        0.00     0.00   0.000
  SUB-480                    0.00       0.00       0.00       0.00       0.00       0.00       0.00        0.00     0.00   0.000
  SUB-482                    0.00       0.00       0.00       0.00       0.00       0.00       0.00        0.00     0.00   0.000
  SUB-484                    0.00       0.00       0.00       0.00       0.00       0.00       0.00        0.00     0.00   0.000
  SUB-486                    0.00       0.00       0.00       0.00       0.00       0.00       0.00        0.00     0.00   0.000
  SUB-488                    0.00       0.00       0.00       0.00       0.00       0.00       0.00        0.00     0.00   0.000
  SUB-490                    0.00       0.00       0.00       0.00       0.00       0.00       0.00        0.00     0.00   0.000
  SUB-492                    0.00       0.00       0.00       0.00       0.00       0.00       0.00        0.00     0.00   0.000
  SUB-494                    0.00       0.00       0.00       0.00       0.00       0.00       0.00        0.00     0.00   0.000
  SUB-496                    0.00       0.00       0.00       0.00       0.00       0.00       0.00        0.00     0.00   0.000
  SUB-498                    0.00       0.00       0.00       0.00       0.00       0.00       0.00        0.00     0.00   0.000
  SUB-50                     0.00       0.00       0.00       0.00       0.00       0.00       0.00        0.00     0.00   0.000
  SUB-500                    0.00       0.00       0.00       0.00       0.00       0.00       0.00        0.00     0.00   0.000
  SUB-502                    0.00       0.00       0.00       0.00       0.00       0.00       0.00        0.00     0.00   0.000
  SUB-504                    0.00       0.00       0.00       0.00       0.00       0.00       0.00        0.00     0.00   0.000
  SUB-506                    0.00       0.00       0.00       0.00       0.00       0.00       0.00        0.00     0.00   0.000
  SUB-508                    0.00       0.00       0.00       0.00       0.00       0.00       0.00        0.00     0.00   0.000
  SUB-510                    0.00       0.00       0.00       0.00       0.00       0.00       0.00        0.00     0.00   0.000
  SUB-512                    0.00       0.00       0.00       0.00       0.00       0.00       0.00        0.00     0.00   0.000
  SUB-514                    0.00       0.00       0.00       0.00       0.00       0.00       0.00        0.00     0.00   0.000
  SUB-516                    0.00       0.00       0.00       0.00       0.00       0.00       0.00        0.00     0.00   0.000
  SUB-518                    0.00       0.00       0.00       0.00       0.00       0.00       0.00        0.00     0.00   0.000
  SUB-52                     0.00       0.00       0.00       0.00       0.00       0.00       0.00        0.00     0.00   0.000
  SUB-520                    0.00       0.00       0.00       0.00       0.00       0.00       0.00        0.00     0.00   0.000
  SUB-522                    0.00       0.00       0.00       0.00       0.00       0.00       0.00        0.00     0.00   0.000
  SUB-524                    0.00       0.00       0.00       0.00       0.00       0.00       0.00        0.00     0.00   0.000
  SUB-526                    0.00       0.00       0.00       0.00       0.00       0.00       0.00        0.00     0.00   0.000
  SUB-528                    0.00       0.00       0.00       0.00       0.00       0.00       0.00        0.00     0.00   0.000
  SUB-530                    0.00       0.00       0.00       0.00       0.00       0.00       0.00        0.00     0.00   0.000
  SUB-532                    0.00       0.00       0.00       0.00       0.00       0.00       0.00        0.00     0.00   0.000
  SUB-534                    0.00       0.00       0.00       0.00       0.00       0.00       0.00        0.00     0.00   0.000
  SUB-536                    0.00       0.00       0.00       0.00       0.00       0.00       0.00        0.00     0.00   0.000
  SUB-538                    0.00       0.00       0.00       0.00       0.00       0.00       0.00        0.00     0.00   0.000
  SUB-54                     0.00       0.00       0.00       0.00       0.00       0.00       0.00        0.00     0.00   0.000
  SUB-540                    0.00       0.00       0.00       0.00       0.00       0.00       0.00        0.00     0.00   0.000
  SUB-542                    0.00       0.00       0.00       0.00       0.00       0.00       0.00        0.00     0.00   0.000
  SUB-544                    0.00       0.00       0.00       0.00       0.00       0.00       0.00        0.00     0.00   0.000
  SUB-546                    0.00       0.00       0.00       0.00       0.00       0.00       0.00        0.00     0.00   0.000
  SUB-548                    0.00       0.00       0.00       0.00       0.00       0.00       0.00        0.00     0.00   0.000
  SUB-550                    0.00       0.00       0.00       0.00       0.00       0.00       0.00        0.00     0.00   0.000
  SUB-552                    0.00       0.00       0.00       0.00       0.00       0.00       0.00        0.00     0.00   0.000
  SUB-554                    0.00       0.00       0.00       0.00       0.00       0.00       0.00        0.00     0.00   0.000
  SUB-556                    0.00       0.00       0.00       0.00       0.00       0.00       0.00        0.00     0.00   0.000
  SUB-558                    0.00       0.00       0.00       0.00       0.00       0.00       0.00        0.00     0.00   0.000
  SUB-56                     0.00       0.00       0.00       0.00       0.00       0.00       0.00        0.00     0.00   0.000
  SUB-560                    0.00       0.00       0.00       0.00       0.00       0.00       0.00        0.00     0.00   0.000
  SUB-562                    0.00       0.00       0.00       0.00       0.00       0.00       0.00        0.00     0.00   0.000
  SUB-564                    0.00       0.00       0.00       0.00       0.00       0.00       0.00        0.00     0.00   0.000
  SUB-566                    0.00       0.00       0.00       0.00       0.00       0.00       0.00        0.00     0.00   0.000
  SUB-568                    0.00       0.00       0.00       0.00       0.00       0.00       0.00        0.00     0.00   0.000
  SUB-570                    0.00       0.00       0.00       0.00       0.00       0.00       0.00        0.00     0.00   0.000
  SUB-572                    0.00       0.00       0.00       0.00       0.00       0.00       0.00        0.00     0.00   0.000
  SUB-574                    0.00       0.00       0.00       0.00       0.00       0.00       0.00        0.00     0.00   0.000
  SUB-576                    0.00       0.00       0.00       0.00       0.00       0.00       0.00        0.00     0.00   0.000
  SUB-578                    0.00       0.00       0.00       0.00       0.00       0.00       0.00        0.00     0.00   0.000
  SUB-58                     0.00       0.00       0.00       0.00       0.00       0.00       0.00        0.00     0.00   0.000
  SUB-580                    0.00       0.00       0.00       0.00       0.00       0.00       0.00        0.00     0.00   0.000
  SUB-582                    0.00       0.00       0.00       0.00       0.00       0.00       0.00        0.00     0.00   0.000
  SUB-584                    0.00       0.00       0.00       0.00       0.00       0.00       0.00        0.00     0.00   0.000
  SUB-586                    0.00       0.00       0.00       0.00       0.00       0.00       0.00        0.00     0.00   0.000
  SUB-588                    0.00       0.00       0.00       0.00       0.00       0.00       0.00        0.00     0.00   0.000
  SUB-590                    0.00       0.00       0.00       0.00       0.00       0.00       0.00        0.00     0.00   0.000
  SUB-592                    0.00       0.00       0.00       0.00       0.00       0.00       0.00        0.00     0.00   0.000
  SUB-594                    0.00       0.00       0.00       0.00       0.00       0.00       0.00        0.00     0.00   0.000
  SUB-596                    0.00       0.00       0.00       0.00       0.00       0.00       0.00        0.00     0.00   0.000
  SUB-598                    0.00       0.00       0.00       0.00       0.00       0.00       0.00        0.00     0.00   0.000
  SUB-600                    0.00       0.00       0.00       0.00       0.00       0.00       0.00        0.00     0.00   0.000
  SUB-602                    0.00       0.00       0.00       0.00       0.00       0.00       0.00        0.00     0.00   0.000
  SUB-604                    0.00       0.00       0.00       0.00       0.00       0.00       0.00        0.00     0.00   0.000
  SUB-606                    0.00       0.00       0.00       0.00       0.00       0.00       0.00        0.00     0.00   0.000
  SUB-608                    0.00       0.00       0.00       0.00       0.00       0.00       0.00        0.00     0.00   0.000
  SUB-610                    0.00       0.00       0.00       0.00       0.00       0.00       0.00        0.00     0.00   0.000
  SUB-612                    0.00       0.00       0.00       0.00       0.00       0.00       0.00        0.00     0.00   0.000
  SUB-614                    0.00       0.00       0.00       0.00       0.00       0.00       0.00        0.00     0.00   0.000
  SUB-616                    0.00       0.00       0.00       0.00       0.00       0.00       0.00        0.00     0.00   0.000
  SUB-618                    0.00       0.00       0.00       0.00       0.00       0.00       0.00        0.00     0.00   0.000
  SUB-62                     0.00       0.00       0.00       0.00       0.00       0.00       0.00        0.00     0.00   0.000
  SUB-620                    0.00       0.00       0.00       0.00       0.00       0.00       0.00        0.00     0.00   0.000
  SUB-622                    0.00       0.00       0.00       0.00       0.00       0.00       0.00        0.00     0.00   0.000
  SUB-624                    0.00       0.00       0.00       0.00       0.00       0.00       0.00        0.00     0.00   0.000
  SUB-626                    0.00       0.00       0.00       0.00       0.00       0.00       0.00        0.00     0.00   0.000
  SUB-628                    0.00       0.00       0.00       0.00       0.00       0.00       0.00        0.00     0.00   0.000
  SUB-630                    0.00       0.00       0.00       0.00       0.00       0.00       0.00        0.00     0.00   0.000
  SUB-632                    0.00       0.00       0.00       0.00       0.00       0.00       0.00        0.00     0.00   0.000
  SUB-634                    0.00       0.00       0.00       0.00       0.00       0.00       0.00        0.00     0.00   0.000
  SUB-636                    0.00       0.00       0.00       0.00       0.00       0.00       0.00        0.00     0.00   0.000
  SUB-638                    0.00       0.00       0.00       0.00       0.00       0.00       0.00        0.00     0.00   0.000
  SUB-64                     0.00       0.00       0.00       0.00       0.00       0.00       0.00        0.00     0.00   0.000
  SUB-640                    0.00       0.00       0.00       0.00       0.00       0.00       0.00        0.00     0.00   0.000
  SUB-642                    0.00       0.00       0.00       0.00       0.00       0.00       0.00        0.00     0.00   0.000
  SUB-644                    0.00       0.00       0.00       0.00       0.00       0.00       0.00        0.00     0.00   0.000
  SUB-646                    0.00       0.00       0.00       0.00       0.00       0.00       0.00        0.00     0.00   0.000
  SUB-648                    0.00       0.00       0.00       0.00       0.00       0.00       0.00        0.00     0.00   0.000
  SUB-650                    0.00       0.00       0.00       0.00       0.00       0.00       0.00        0.00     0.00   0.000
  SUB-652                    0.00       0.00       0.00       0.00       0.00       0.00       0.00        0.00     0.00   0.000
  SUB-654                    0.00       0.00       0.00       0.00       0.00       0.00       0.00        0.00     0.00   0.000
  SUB-656                    0.00       0.00       0.00       0.00       0.00       0.00       0.00        0.00     0.00   0.000
  SUB-658                    0.00       0.00       0.00       0.00       0.00       0.00       0.00        0.00     0.00   0.000
  SUB-66                     0.00       0.00       0.00       0.00       0.00       0.00       0.00        0.00     0.00   0.000
  SUB-660                    0.00       0.00       0.00       0.00       0.00       0.00       0.00        0.00     0.00   0.000
  SUB-662                    0.00       0.00       0.00       0.00       0.00       0.00       0.00        0.00     0.00   0.000
  SUB-664                    0.00       0.00       0.00       0.00       0.00       0.00       0.00        0.00     0.00   0.000
  SUB-666                    0.00       0.00       0.00       0.00       0.00       0.00       0.00        0.00     0.00   0.000
  SUB-668                    0.00       0.00       0.00       0.00       0.00       0.00       0.00        0.00     0.00   0.000
  SUB-670                    0.00       0.00       0.00       0.00       0.00       0.00       0.00        0.00     0.00   0.000
  SUB-672                    0.00       0.00       0.00       0.00       0.00       0.00       0.00        0.00     0.00   0.000
  SUB-674                    0.00       0.00       0.00       0.00       0.00       0.00       0.00        0.00     0.00   0.000
  SUB-676                    0.00       0.00       0.00       0.00       0.00       0.00       0.00        0.00     0.00   0.000
  SUB-678                    0.00       0.00       0.00       0.00       0.00       0.00       0.00        0.00     0.00   0.000
  SUB-68                     0.00       0.00       0.00       0.00       0.00       0.00       0.00        0.00     0.00   0.000
  SUB-680                    0.00       0.00       0.00       0.00       0.00       0.00       0.00        0.00     0.00   0.000
  SUB-682                    0.00       0.00       0.00       0.00       0.00       0.00       0.00        0.00     0.00   0.000
  SUB-684                    0.00       0.00       0.00       0.00       0.00       0.00       0.00        0.00     0.00   0.000
  SUB-686                    0.00       0.00       0.00       0.00       0.00       0.00       0.00        0.00     0.00   0.000
  SUB-688                    0.00       0.00       0.00       0.00       0.00       0.00       0.00        0.00     0.00   0.000
  SUB-690                    0.00       0.00       0.00       0.00       0.00       0.00       0.00        0.00     0.00   0.000
  SUB-692                    0.00       0.00       0.00       0.00       0.00       0.00       0.00        0.00     0.00   0.000
  SUB-694                    0.00       0.00       0.00       0.00       0.00       0.00       0.00        0.00     0.00   0.000
  SUB-696                    0.00       0.00       0.00       0.00       0.00       0.00       0.00        0.00     0.00   0.000
  SUB-698                    0.00       0.00       0.00       0.00       0.00       0.00       0.00        0.00     0.00   0.000
  SUB-700                    0.00       0.00       0.00       0.00       0.00       0.00       0.00        0.00     0.00   0.000
  SUB-702                    0.00       0.00       0.00       0.00       0.00       0.00       0.00        0.00     0.00   0.000
  SUB-704                    0.00       0.00       0.00       0.00       0.00       0.00       0.00        0.00     0.00   0.000
  SUB-706                    0.00       0.00       0.00       0.00       0.00       0.00       0.00        0.00     0.00   0.000
  SUB-708                    0.00       0.00       0.00       0.00       0.00       0.00       0.00        0.00     0.00   0.000
  SUB-710                    0.00       0.00       0.00       0.00       0.00       0.00       0.00        0.00     0.00   0.000
  SUB-712                    0.00       0.00       0.00       0.00       0.00       0.00       0.00        0.00     0.00   0.000
  SUB-714                    0.00       0.00       0.00       0.00       0.00       0.00       0.00        0.00     0.00   0.000
  SUB-716                    0.00       0.00       0.00       0.00       0.00       0.00       0.00        0.00     0.00   0.000
  SUB-718                    0.00       0.00       0.00       0.00       0.00       0.00       0.00        0.00     0.00   0.000
  SUB-72                     0.00       0.00       0.00       0.00       0.00       0.00       0.00        0.00     0.00   0.000
  SUB-720                    0.00       0.00       0.00       0.00       0.00       0.00       0.00        0.00     0.00   0.000
  SUB-722                    0.00       0.00       0.00       0.00       0.00       0.00       0.00        0.00     0.00   0.000
  SUB-724                    0.00       0.00       0.00       0.00       0.00       0.00       0.00        0.00     0.00   0.000
  SUB-726                    0.00       0.00       0.00       0.00       0.00       0.00       0.00        0.00     0.00   0.000
  SUB-728                    0.00       0.00       0.00       0.00       0.00       0.00       0.00        0.00     0.00   0.000
  SUB-730                    0.00       0.00       0.00       0.00       0.00       0.00       0.00        0.00     0.00   0.000
  SUB-732                    0.00       0.00       0.00       0.00       0.00       0.00       0.00        0.00     0.00   0.000
  SUB-734                    0.00       0.00       0.00       0.00       0.00       0.00       0.00        0.00     0.00   0.000
  SUB-736                    0.00       0.00       0.00       0.00       0.00       0.00       0.00        0.00     0.00   0.000
  SUB-738                    0.00       0.00       0.00       0.00       0.00       0.00       0.00        0.00     0.00   0.000
  SUB-740                    0.00       0.00       0.00       0.00       0.00       0.00       0.00        0.00     0.00   0.000
  SUB-742                    0.00       0.00       0.00       0.00       0.00       0.00       0.00        0.00     0.00   0.000
  SUB-744                    0.00       0.00       0.00       0.00       0.00       0.00       0.00        0.00     0.00   0.000
  SUB-746                    0.00       0.00       0.00       0.00       0.00       0.00       0.00        0.00     0.00   0.000
  SUB-748                    0.00       0.00       0.00       0.00       0.00       0.00       0.00        0.00     0.00   0.000
  SUB-750                    0.00       0.00       0.00       0.00       0.00       0.00       0.00        0.00     0.00   0.000
  SUB-752                    0.00       0.00       0.00       0.00       0.00       0.00       0.00        0.00     0.00   0.000
  SUB-754                    0.00       0.00       0.00       0.00       0.00       0.00       0.00        0.00     0.00   0.000
  SUB-756                    0.00       0.00       0.00       0.00       0.00       0.00       0.00        0.00     0.00   0.000
  SUB-758                    0.00       0.00       0.00       0.00       0.00       0.00       0.00        0.00     0.00   0.000
  SUB-76                     0.00       0.00       0.00       0.00       0.00       0.00       0.00        0.00     0.00   0.000
  SUB-760                    0.00       0.00       0.00       0.00       0.00       0.00       0.00        0.00     0.00   0.000
  SUB-762                    0.00       0.00       0.00       0.00       0.00       0.00       0.00        0.00     0.00   0.000
  SUB-764                    0.00       0.00       0.00       0.00       0.00       0.00       0.00        0.00     0.00   0.000
  SUB-766                    0.00       0.00       0.00       0.00       0.00       0.00       0.00        0.00     0.00   0.000
  SUB-768                    0.00       0.00       0.00       0.00       0.00       0.00       0.00        0.00     0.00   0.000
  SUB-770                    0.00       0.00       0.00       0.00       0.00       0.00       0.00        0.00     0.00   0.000
  SUB-772                    0.00       0.00       0.00       0.00       0.00       0.00       0.00        0.00     0.00   0.000
  SUB-774                    0.00       0.00       0.00       0.00       0.00       0.00       0.00        0.00     0.00   0.000
  SUB-776                    0.00       0.00       0.00       0.00       0.00       0.00       0.00        0.00     0.00   0.000
  SUB-778                    0.00       0.00       0.00       0.00       0.00       0.00       0.00        0.00     0.00   0.000
  SUB-780                    0.00       0.00       0.00       0.00       0.00       0.00       0.00        0.00     0.00   0.000
  SUB-782                    0.00       0.00       0.00       0.00       0.00       0.00       0.00        0.00     0.00   0.000
  SUB-784                    0.00       0.00       0.00       0.00       0.00       0.00       0.00        0.00     0.00   0.000
  SUB-786                    0.00       0.00       0.00       0.00       0.00       0.00       0.00        0.00     0.00   0.000
  SUB-788                    0.00       0.00       0.00       0.00       0.00       0.00       0.00        0.00     0.00   0.000
  SUB-790                    0.00       0.00       0.00       0.00       0.00       0.00       0.00        0.00     0.00   0.000
  SUB-792                    0.00       0.00       0.00       0.00       0.00       0.00       0.00        0.00     0.00   0.000
  SUB-794                    0.00       0.00       0.00       0.00       0.00       0.00       0.00        0.00     0.00   0.000
  SUB-796                    0.00       0.00       0.00       0.00       0.00       0.00       0.00        0.00     0.00   0.000
  SUB-798                    0.00       0.00       0.00       0.00       0.00       0.00       0.00        0.00     0.00   0.000
  SUB-80                     0.00       0.00       0.00       0.00       0.00       0.00       0.00        0.00     0.00   0.000
  SUB-800                    0.00       0.00       0.00       0.00       0.00       0.00       0.00        0.00     0.00   0.000
  SUB-802                    0.00       0.00       0.00       0.00       0.00       0.00       0.00        0.00     0.00   0.000
  SUB-804                    0.00       0.00       0.00       0.00       0.00       0.00       0.00        0.00     0.00   0.000
  SUB-806                    0.00       0.00       0.00       0.00       0.00       0.00       0.00        0.00     0.00   0.000
  SUB-808                    0.00       0.00       0.00       0.00       0.00       0.00       0.00        0.00     0.00   0.000
  SUB-810                    0.00       0.00       0.00       0.00       0.00       0.00       0.00        0.00     0.00   0.000
  SUB-812                    0.00       0.00       0.00       0.00       0.00       0.00       0.00        0.00     0.00   0.000
  SUB-814                    0.00       0.00       0.00       0.00       0.00       0.00       0.00        0.00     0.00   0.000
  SUB-816                    0.00       0.00       0.00       0.00       0.00       0.00       0.00        0.00     0.00   0.000
  SUB-818                    0.00       0.00       0.00       0.00       0.00       0.00       0.00        0.00     0.00   0.000
  SUB-82                     0.00       0.00       0.00       0.00       0.00       0.00       0.00        0.00     0.00   0.000
  SUB-820                    0.00       0.00       0.00       0.00       0.00       0.00       0.00        0.00     0.00   0.000
  SUB-822                    0.00       0.00       0.00       0.00       0.00       0.00       0.00        0.00     0.00   0.000
  SUB-824                    0.00       0.00       0.00       0.00       0.00       0.00       0.00        0.00     0.00   0.000
  SUB-826                    0.00       0.00       0.00       0.00       0.00       0.00       0.00        0.00     0.00   0.000
  SUB-828                    0.00       0.00       0.00       0.00       0.00       0.00       0.00        0.00     0.00   0.000
  SUB-830                    0.00       0.00       0.00       0.00       0.00       0.00       0.00        0.00     0.00   0.000
  SUB-832                    0.00       0.00       0.00       0.00       0.00       0.00       0.00        0.00     0.00   0.000
  SUB-834                    0.00       0.00       0.00       0.00       0.00       0.00       0.00        0.00     0.00   0.000
  SUB-836                    0.00       0.00       0.00       0.00       0.00       0.00       0.00        0.00     0.00   0.000
  SUB-838                    0.00       0.00       0.00       0.00       0.00       0.00       0.00        0.00     0.00   0.000
  SUB-84                     0.00       0.00       0.00       0.00       0.00       0.00       0.00        0.00     0.00   0.000
  SUB-840                    0.00       0.00       0.00       0.00       0.00       0.00       0.00        0.00     0.00   0.000
  SUB-842                    0.00       0.00       0.00       0.00       0.00       0.00       0.00        0.00     0.00   0.000
  SUB-844                    0.00       0.00       0.00       0.00       0.00       0.00       0.00        0.00     0.00   0.000
  SUB-86                     0.00       0.00       0.00       0.00       0.00       0.00       0.00        0.00     0.00   0.000
  SUB-88                     0.00       0.00       0.00       0.00       0.00       0.00       0.00        0.00     0.00   0.000
  SUB-90                     0.00       0.00       0.00       0.00       0.00       0.00       0.00        0.00     0.00   0.000
  SUB-92                     0.00       0.00       0.00       0.00       0.00       0.00       0.00        0.00     0.00   0.000
  SUB-94                     0.00       0.00       0.00       0.00       0.00       0.00       0.00        0.00     0.00   0.000
  SUB-96                     0.00       0.00       0.00       0.00       0.00       0.00       0.00        0.00     0.00   0.000
  SUB-98                     0.00       0.00       0.00       0.00       0.00       0.00       0.00        0.00     0.00   0.000
  
  
  ****************************
  Subcatchment Washoff Summary
  ****************************
  
  --------------------------------------------------------------
                                RDII           DWF        RUNOFF
  Subcatchment                   lbs           lbs           lbs
  --------------------------------------------------------------
  SUB-10                       0.000         0.000         0.000
  SUB-100                      0.000         0.000         0.000
  SUB-102                      0.000         0.000         0.000
  SUB-104                      0.000         0.000         0.000
  SUB-106                      0.000         0.000         0.000
  SUB-108                      0.000         0.000         0.000
  SUB-110                      0.000         0.000         0.000
  SUB-112                      0.000         0.000         0.000
  SUB-114                      0.000         0.000         0.000
  SUB-116                      0.000         0.000         0.000
  SUB-12                       0.000         0.000         0.000
  SUB-120                      0.000         0.000         0.000
  SUB-122                      0.000         0.000         0.000
  SUB-124                      0.000         0.000         0.000
  SUB-126                      0.000         0.000         0.000
  SUB-128                      0.000         0.000         0.000
  SUB-130                      0.000         0.000         0.000
  SUB-132                      0.000         0.000         0.000
  SUB-134                      0.000         0.000         0.000
  SUB-136                      0.000         0.000         0.000
  SUB-138                      0.000         0.000         0.000
  SUB-14                       0.000         0.000         0.000
  SUB-140                      0.000         0.000         0.000
  SUB-142                      0.000         0.000         0.000
  SUB-146                      0.000         0.000         0.000
  SUB-148                      0.000         0.000         0.000
  SUB-150                      0.000         0.000         0.000
  SUB-152                      0.000         0.000         0.000
  SUB-154                      0.000         0.000         0.000
  SUB-156                      0.000         0.000         0.000
  SUB-158                      0.000         0.000         0.000
  SUB-16                       0.000         0.000         0.000
  SUB-160                      0.000         0.000         0.000
  SUB-162                      0.000         0.000         0.000
  SUB-164                      0.000         0.000         0.000
  SUB-166                      0.000         0.000         0.000
  SUB-168                      0.000         0.000         0.000
[...]
  932                          0.000         0.000         0.000
  933                          0.000         0.000         0.000
  934                          0.000         0.000         0.000
  935                          0.000         0.000         0.000
  936                          0.000         0.000         0.000
  937                          0.000         0.000         0.000
  938                          0.000         0.000         0.000
  939                          0.000         0.000         0.000
  94                           0.000         0.000         0.000
  940                          0.000         0.000         0.000
  941                          0.000         0.000         0.000
  942                          0.000         0.000         0.000
  943                          0.000         0.000         0.000
  944                          0.000         0.000         0.000
  948                          0.000         0.000         0.000
  949                          0.000         0.000         0.000
  95                           0.000         0.000         0.000
  950                          0.000         0.000         0.000
  951                          0.000         0.000         0.000
  952                          0.000         0.000         0.000
  953                          0.000         0.000         0.000
  954                          0.000         0.000         0.000
  955                          0.000         0.000         0.000
  956                          0.000         0.000         0.000
  957                          0.000         0.000         0.000
  958                          0.000         0.000         0.000
  959                          0.000         0.000         0.000
  96                           0.000         0.000         0.000
  960                          0.000         0.000         0.000
  961                          0.000         0.000         0.000
  962                          0.000         0.000         0.000
  963                          0.000         0.000         0.000
  966                          0.000         0.000         0.000
  967                          0.000         0.000         0.000
  968                          0.000         0.000         0.000
  969                          0.000         0.000         0.000
  97                           0.000         0.000         0.000
  970                          0.000         0.000         0.000
  971                          0.000         0.000         0.000
  972                          0.000         0.000         0.000
  973                          0.000         0.000         0.000
  974                          0.000         0.000         0.000
  975                          0.000         0.000         0.000
  976                          0.000         0.000         0.000
  977                          0.000         0.000         0.000
  978                          0.000         0.000         0.000
  979                          0.000         0.000         0.000
  98                           0.000         0.000         0.000
  980                          0.000         0.000         0.000
  981                          0.000         0.000         0.000
  982                          0.000         0.000         0.000
  983                          0.000         0.000         0.000
  984                          0.000         0.000         0.000
  985                          0.000         0.000         0.000
  986                          0.000         0.000         0.000
  987                          0.000         0.000         0.000
  988                          0.000         0.000         0.000
  989                          0.000         0.000         0.000
  99                           0.000         0.000         0.000
  990                          0.000         0.000         0.000
  991                          0.000         0.000         0.000
  992                          0.000         0.000         0.000
  CDT-103                      0.000         0.000         0.000
  CDT-105                      0.000         0.000         0.000
  CDT-107                      0.000         0.000         0.000
  CDT-109                      0.000         0.000         0.000
  CDT-111                      0.000         0.000         0.000
  CDT-113                      0.000         0.000         0.000
  CDT-115                      0.000         0.000         0.000
  CDT-117                      0.000         0.000         0.000
  CDT-119                      0.000         0.000         0.000
  CDT-121                      0.000         0.000         0.000
  CDT-123                      0.000         0.000         0.000
  CDT-125                      0.000         0.000         0.000
  CDT-127                      0.000         0.000         0.000
  CDT-131                      0.000         0.000         0.000
  CDT-135                      0.000         0.000         0.000
  CDT-137                      0.000         0.000         0.000
  CDT-139                      0.000         0.000         0.000
  CDT-141                      0.000         0.000         0.000
  CDT-147                      0.000         0.000         0.000
  CDT-149                      0.000         0.000         0.000
  CDT-151                      0.000         0.000         0.000
  CDT-153                      0.000         0.000         0.000
  CDT-157                      0.000         0.000         0.000
  CDT-159                      0.000         0.000         0.000
  CDT-161                      0.000         0.000         0.000
  CDT-163                      0.000         0.000         0.000
  CDT-165                      0.000         0.000         0.000
  CDT-167                      0.000         0.000         0.000
  CDT-169                      0.000         0.000         0.000
  CDT-171                      0.000         0.000         0.000
  CDT-173                      0.000         0.000         0.000
  CDT-177                      0.000         0.000         0.000
  CDT-183                      0.000         0.000         0.000
  CDT-191                      0.000         0.000         0.000
  CDT-193                      0.000         0.000         0.000
  CDT-195                      0.000         0.000         0.000
  CDT-197                      0.000         0.000         0.000
  CDT-201                      0.000         0.000         0.000
  CDT-203                      0.000         0.000         0.000
  CDT-207                      0.000         0.000         0.000
  CDT-213                      0.000         0.000         0.000
  CDT-215                      0.000         0.000         0.000
  CDT-221                      0.000         0.000         0.000
  CDT-225                      0.000         0.000         0.000
  CDT-233                      0.000         0.000         0.000
  CDT-241                      0.000         0.000         0.000
  CDT-243                      0.000         0.000         0.000
  CDT-245                      0.000         0.000         0.000
  CDT-247                      0.000         0.000         0.000
  CDT-249                      0.000         0.000         0.000
  CDT-251                      0.000         0.000         0.000
  CDT-253                      0.000         0.000         0.000
  CDT-255                      0.000         0.000         0.000
  CDT-257                      0.000         0.000         0.000
  CDT-259                      0.000         0.000         0.000
  CDT-261                      0.000         0.000         0.000
  CDT-263                      0.000         0.000         0.000
  CDT-265                      0.000         0.000         0.000
  CDT-267                      0.000         0.000         0.000
  CDT-269                      0.000         0.000         0.000
  CDT-273                      0.000         0.000         0.000
  CDT-275                      0.000         0.000         0.000
  CDT-277                      0.000         0.000         0.000
  CDT-279                      0.000         0.000         0.000
  CDT-281                      0.000         0.000         0.000
  CDT-283                      0.000         0.000         0.000
  CDT-285                      0.000         0.000         0.000
  CDT-287                      0.000         0.000         0.000
  CDT-289                      0.000         0.000         0.000
  CDT-291                      0.000         0.000         0.000
  CDT-293                      0.000         0.000         0.000
  CDT-295                      0.000         0.000         0.000
  CDT-297                      0.000         0.000         0.000
  CDT-299                      0.000         0.000         0.000
  CDT-301                      0.000         0.000         0.000
  CDT-303                      0.000         0.000         0.000
  CDT-305                      0.000         0.000         0.000
  CDT-309                      0.000         0.000         0.000
  CDT-313                      0.000         0.000         0.000
  CDT-321                      0.000         0.000         0.000
  CDT-323                      0.000         0.000         0.000
  CDT-325                      0.000         0.000         0.000
  CDT-327                      0.000         0.000         0.000
  CDT-329                      0.000         0.000         0.000
  CDT-331                      0.000         0.000         0.000
  CDT-333                      0.000         0.000         0.000
  CDT-335                      0.000         0.000         0.000
  CDT-337                      0.000         0.000         0.000
  CDT-339                      0.000         0.000         0.000
  CDT-341                      0.000         0.000         0.000
  CDT-343                      0.000         0.000         0.000
  CDT-345                      0.000         0.000         0.000
  CDT-347                      0.000         0.000         0.000
  CDT-349                      0.000         0.000         0.000
  CDT-351                      0.000         0.000         0.000
  CDT-353                      0.000         0.000         0.000
  CDT-355                      0.000         0.000         0.000
  CDT-357                      0.000         0.000         0.000
  CDT-359                      0.000         0.000         0.000
  CDT-361                      0.000         0.000         0.000
  CDT-363                      0.000         0.000         0.000
  CDT-365                      0.000         0.000         0.000
  CDT-367                      0.000         0.000         0.000
  CDT-369                      0.000         0.000         0.000
  CDT-371                      0.000         0.000         0.000
  CDT-373                      0.000         0.000         0.000
  CDT-375                      0.000         0.000         0.000
  CDT-377                      0.000         0.000         0.000
  CDT-379                      0.000         0.000         0.000
  CDT-381                      0.000         0.000         0.000
  CDT-383                      0.000         0.000         0.000
  CDT-385                      0.000         0.000         0.000
  CDT-387                      0.000         0.000         0.000
  CDT-389                      0.000         0.000         0.000
  CDT-391                      0.000         0.000         0.000
  CDT-393                      0.000         0.000         0.000
  CDT-395                      0.000         0.000         0.000
  CDT-397                      0.000         0.000         0.000
  CDT-399                      0.000         0.000         0.000
  CDT-401                      0.000         0.000         0.000
  CDT-403                      0.000         0.000         0.000
  CDT-405                      0.000         0.000         0.000
  CDT-43                       0.000         0.000         0.000
  CDT-63                       0.000         0.000         0.000
  CDT-65                       0.000         0.000         0.000
  CDT-67                       0.000         0.000         0.000
  CDT-69                       0.000         0.000         0.000
  CDT-71                       0.000         0.000         0.000
  CDT-73                       0.000         0.000         0.000
  CDT-75                       0.000         0.000         0.000
  CDT-77                       0.000         0.000         0.000
  CDT-79                       0.000         0.000         0.000
  CDT-81                       0.000         0.000         0.000
  CDT-83                       0.000         0.000         0.000
  CDT-89                       0.000         0.000         0.000
  CDT-91                       0.000         0.000         0.000
  CDT-93                       0.000         0.000         0.000
  CDT-95                       0.000         0.000         0.000
  CDT-97                       0.000         0.000         0.000
  CDT-99                       0.000         0.000         0.000
  ORI-21                       0.000         0.000         0.000
  7145                         0.000         0.000         0.000
  7157                         0.000         0.000         0.000
  7502                         0.000         0.000         0.000
  CDT-15                       0.000         0.000         0.000
  CDT-21                       0.000         0.000         0.000
  CDT-25                       0.000         0.000         0.000
  CDT-33                       0.000         0.000         0.000
  PUMP-13                      0.000         0.000         0.000
  PUMP-15                      0.000         0.000         0.000
  PUMP-19                      0.000         0.000         0.000
  PUMP-21                      0.000         0.000         0.000
  PUMP-23                      0.000         0.000         0.000
  PUMP-25                      0.000         0.000         0.000
  PUMP-27                      0.000         0.000         0.000
  PUMP-29                      0.000         0.000         0.000
  PUMP-31                      0.000         0.000         0.000
  PUMP-33                      0.000         0.000         0.000
  PUMP-37                      0.000         0.000         0.000
  PUMP-39                      0.000         0.000         0.000
  PUMP-41                      0.000         0.000         0.000
  PUMP-43                      0.000         0.000         0.000
  PUMP-45                      0.000         0.000         0.000
  PUMP-47                      0.000         0.000         0.000
  PUMP-51                      0.000         0.000         0.000
  PUMP-55                      0.000         0.000         0.000
  PUMP-57                      0.000         0.000         0.000
  PUMP-59                      0.000         0.000         0.000
  PUMP-61                      0.000         0.000         0.000
  PUMP-63                      0.000         0.000         0.000
  2670                         0.000         0.000         0.000
  3794                         0.000         0.000         0.000
  4311                         0.000         0.000         0.000
  4590                         0.000         0.000         0.000
  4672                         0.000         0.000         0.000
  4714                         0.000         0.000         0.000
  5411                         0.000         0.000         0.000
  6598                         0.000         0.000         0.000
  6888                         0.000         0.000         0.000
  7829                         0.000         0.000         0.000
  7904                         0.000         0.000         0.000
  CDT-187                      0.000         0.000         0.000
  CDT-223                      0.000         0.000         0.000
  CDT-227                      0.000         0.000         0.000
  CDT-235                      0.000         0.000         0.000
  CDT-237                      0.000         0.000         0.000
  ORI-11                       0.000         0.000         0.000
  ORI-13                       0.000         0.000         0.000
  ORI-15                       0.000         0.000         0.000
  ORI-17                       0.000         0.000         0.000
  ORI-19                       0.000         0.000         0.000
  2191                         0.000         0.000         0.000
  2501                         0.000         0.000         0.000
  2531                         0.000         0.000         0.000
  302                          0.000         0.000         0.000
  3075                         0.000         0.000         0.000
  3189                         0.000         0.000         0.000
  3725                         0.000         0.000         0.000
  3739                         0.000         0.000         0.000
  3800                         0.000         0.000         0.000
  3809                         0.000         0.000         0.000
  420                          0.000         0.000         0.000
  4312                         0.000         0.000         0.000
  4420                         0.000         0.000         0.000
  4489                         0.000         0.000         0.000
  4587                         0.000         0.000         0.000
  4674                         0.000         0.000         0.000
  5276                         0.000         0.000         0.000
  540                          0.000         0.000         0.000
  5587                         0.000         0.000         0.000
  5946                         0.000         0.000         0.000
  6356                         0.000         0.000         0.000
  6595                         0.000         0.000         0.000
  6610                         0.000         0.000         0.000
  6860                         0.000         0.000         0.000
  6894                         0.000         0.000         0.000
  7122                         0.000         0.000         0.000
  718                          0.000         0.000         0.000
  7207                         0.000         0.000         0.000
  7209                         0.000         0.000         0.000
  7376                         0.000         0.000         0.000
  7835                         0.000         0.000         0.000
  7893                         0.000         0.000         0.000
  7986                         0.000         0.000         0.000
  8031                         0.000         0.000         0.000
  8070                         0.000         0.000         0.000
  8071                         0.000         0.000         0.000
  CDT-229                      0.000         0.000         0.000
  CDT-231                      0.000         0.000         0.000
  CDT-239                      0.000         0.000         0.000
  CDT-61                       0.000         0.000         0.000
  WEIR-13                      0.000         0.000         0.000
  WEIR-15                      0.000         0.000         0.000
  WEIR-17                      0.000         0.000         0.000
  WEIR-19                      0.000         0.000         0.000
  WEIR-23                      0.000         0.000         0.000
  WEIR-25                      0.000         0.000         0.000
  WEIR-27                      0.000         0.000         0.000
  WEIR-31                      0.000         0.000         0.000
  WEIR-35                      0.000         0.000         0.000
  WEIR-37                      0.000         0.000         0.000
  WEIR-39                      0.000         0.000         0.000
  WEIR-41                      0.000         0.000         0.000
  

  Analysis begun on:  Sat Nov 30 08:11:19 2019
  Analysis ended on:  Sat Nov 30 08:11:19 2019
  Total elapsed time: < 1 sec