
  EPA STORM WATER MANAGEMENT MODEL - VERSION 5.1 (Build 5.1.013)
  --------------------------------------------------------------

  
  **********************           Volume        Volume
  Rainfall Dependent I/I        hectare-m      10^6 ltr
  **********************        ---------     ---------
  Sewershed Rainfall ......         0.000         0.000
  RDII Produced ...........         0.000         0.000
  RDII Ratio ..............         0.000
  
  
  *********************************************************
  NOTE: The summary statistics displayed in this report are
  based on results found at every computational time step,  
  not just on results from each reporting time step.
  *********************************************************
  
  ****************
  Analysis Options
  ****************
  Flow Units ............... LPS
  Process Models:
    Rainfall/Runoff ........ YES
    RDII ................... YES
    Snowmelt ............... NO
    Groundwater ............ NO
    Flow Routing ........... YES
    Ponding Allowed ........ YES
    Water Quality .......... NO
  Flow Routing Method ...... DYNWAVE
  Surcharge Method ......... EXTRAN
  Starting Date ............ 08/22/2008 00:00:00
  Ending Date .............. 08/22/2008 08:00:00
  Antecedent Dry Days ...... 5.0
  Report Time Step ......... 00:01:00
  Routing Time Step ........ 10.00 sec
  Variable Time Step ....... YES
  Maximum Trials ........... 8
  Number of Threads ........ 1
  Head Tolerance ........... 0.000100 m
  
  
  *********************
  Control Actions Taken
  *********************

  
  **************************        Volume        Volume
  Flow Routing Continuity        hectare-m      10^6 ltr
  **************************     ---------     ---------
  Dry Weather Inflow .......         0.038         0.383
  Wet Weather Inflow .......         0.000         0.000
  Groundwater Inflow .......         0.000         0.000
  RDII Inflow ..............         0.000         0.000
  External Inflow ..........         0.000         0.001
  External Outflow .........         0.279         2.789
  Flooding Loss ............         0.089         0.889
  Evaporation Loss .........         0.000         0.000
  Exfiltration Loss ........         0.000         0.000
  Initial Stored Volume ....        11.999       119.989
  Final Stored Volume ......        11.667       116.670
  Continuity Error (%) .....         0.023
  
  
  *************************
  Highest Continuity Errors
  *************************
  Node 60076 (93.13%)
  Node 60073 (88.00%)
  Node 60250 (67.32%)
  Node 6722 (51.69%)
  Node 60249 (50.09%)
  
  
  ***************************
  Time-Step Critical Elements
  ***************************
  Link 12776 (81.21%)
  Link 603RENPSIN (14.07%)
  Link F13011OPURS (2.68%)
  
  
  ********************************
  Highest Flow Instability Indexes
  ********************************
  Link GA1-A (65)
  Link 81438R (17)
  Link 11790 (16)
  Link 12901 (14)
  Link F60318 (7)
  
  
  *************************
  Routing Time Step Summary
  *************************
  Minimum Time Step           :     0.55 sec
  Average Time Step           :     2.75 sec
  Maximum Time Step           :     3.82 sec
  Percent in Steady State     :    -0.00
  Average Iterations per Step :     7.90
  Percent Not Converging      :    87.75
  
  
  ******************
  Node Depth Summary
  ******************
  
  ---------------------------------------------------------------------------------
                                 Average  Maximum  Maximum  Time of Max    Reported
                                   Depth    Depth      HGL   Occurrence   Max Depth
  Node                 Type       Meters   Meters   Meters  days hr:min      Meters
  ---------------------------------------------------------------------------------
  1138                 JUNCTION     0.06     0.08    19.38     0  07:46        0.08
  1182                 JUNCTION     0.01     0.02    15.93     0  08:00        0.02
  1242                 JUNCTION     0.04     0.07    17.96     0  08:00        0.07
  28749                JUNCTION     0.01     0.01    20.16     0  08:00        0.01
  28750                JUNCTION     0.02     0.02    19.77     0  07:33        0.02
  32870                JUNCTION     0.03     0.04    19.39     0  08:00        0.04
  33740                JUNCTION     0.02     0.04    18.55     0  07:40        0.04
  33741                JUNCTION     0.02     0.04    19.37     0  07:38        0.04
  40459                JUNCTION     0.00     0.01    18.83     0  08:00        0.01
  40460                JUNCTION     0.01     0.01    18.32     0  08:00        0.01
  40461                JUNCTION     0.01     0.01    17.40     0  08:00        0.01
  40462                JUNCTION     0.03     0.05    17.32     0  08:00        0.05
  40675                JUNCTION     0.00     0.01    17.94     0  07:04        0.01
  40698                JUNCTION     0.00     0.01    18.39     0  08:00        0.01
  41319                JUNCTION     0.01     0.01    18.62     0  08:00        0.01
  41320                JUNCTION     0.01     0.01    17.72     0  08:00        0.01
  41321                JUNCTION     0.00     0.00    17.90     0  02:12        0.00
  41325                JUNCTION     0.00     0.00    17.80     0  00:00        0.00
  43699                JUNCTION     0.00     0.00    18.24     0  00:37        0.00
  43700                JUNCTION     0.02     0.02    18.03     0  00:16        0.02
  43701                JUNCTION     0.00     0.00    18.38     0  00:30        0.00
  45877                JUNCTION     0.01     0.01    16.70     0  07:05        0.01
  48981                JUNCTION     0.01     0.01    19.63     0  08:00        0.01
  48982                JUNCTION     0.04     0.05    18.40     0  08:00        0.05
  48983                JUNCTION     0.07     0.09    18.19     0  08:00        0.09
  48984                JUNCTION     0.04     0.06    18.59     0  08:00        0.06
  48985                JUNCTION     0.04     0.06    18.90     0  08:00        0.06
  48986                JUNCTION     0.01     0.01    19.10     0  07:54        0.01
  49025                JUNCTION     0.00     0.00    19.27     0  00:00        0.00
  49026                JUNCTION     0.00     0.00    19.00     0  00:00        0.00
  49027                JUNCTION     0.03     0.05    17.90     0  08:00        0.05
  49102                JUNCTION     0.00     0.00    19.92     0  00:00        0.00
  49103                JUNCTION     0.00     0.00    19.67     0  03:07        0.00
  49104                JUNCTION     0.01     0.01    19.39     0  04:48        0.01
  50136                JUNCTION     0.20     1.24    18.86     0  00:02        0.33
  50148                JUNCTION     0.01     0.01    16.40     0  07:53        0.01
  50149                JUNCTION     0.01     0.01    17.64     0  00:58        0.01
  50150                JUNCTION     0.01     0.02    16.64     0  08:00        0.02
  50151                JUNCTION     0.01     0.01    17.15     0  08:00        0.01
  50152                JUNCTION     0.01     0.01    17.32     0  07:34        0.01
  50154                JUNCTION     0.00     0.01    17.27     0  07:55        0.01
  50155                JUNCTION     0.00     0.01    17.44     0  08:00        0.01
  50156                JUNCTION     0.00     0.00    17.74     0  00:00        0.00
  50157                JUNCTION     0.01     0.01    17.77     0  08:00        0.01
  50720                JUNCTION     0.18     0.19    16.73     0  08:00        0.19
  50721                JUNCTION     0.01     0.01    16.96     0  00:48        0.01
  50831                JUNCTION     0.02     0.02    17.97     0  08:00        0.02
  51200                JUNCTION     0.00     0.00    18.85     0  00:35        0.00
  51201                JUNCTION     0.11     0.14    18.04     0  08:00        0.14
  51514                JUNCTION     0.00     0.01    16.99     0  08:00        0.01
  51776                JUNCTION     0.11     0.12    20.69     0  07:56        0.12
  51777                JUNCTION     0.01     0.01    20.85     0  07:35        0.01
  51778                JUNCTION     0.01     0.01    20.69     0  07:59        0.01
  51779                JUNCTION     0.01     0.01    20.55     0  07:58        0.01
  51780                JUNCTION     0.01     0.01    20.33     0  08:00        0.01
  51781                JUNCTION     0.01     0.02    20.11     0  08:00        0.02
  51782                JUNCTION     0.01     0.02    20.04     0  08:00        0.02
  51783                JUNCTION     0.01     0.01    19.48     0  08:00        0.01
  53566                JUNCTION     0.00     0.00    19.91     0  00:00        0.00
  53568                JUNCTION     0.04     0.05    19.35     0  08:00        0.05
  54                   JUNCTION     0.12     0.13    19.53     0  05:32        0.13
  56523                JUNCTION     0.07     0.15    17.56     0  07:02        0.14
  56524                JUNCTION     0.18     0.26    17.56     0  07:02        0.25
  56525                JUNCTION     0.18     0.25    17.55     0  07:02        0.24
  56526                JUNCTION     0.18     0.60    17.76     0  07:02        0.43
  56565                JUNCTION     0.01     0.01    19.52     0  02:01        0.01
  56717                JUNCTION     0.00     0.00    20.49     0  03:45        0.00
  56718                JUNCTION     0.01     0.01    19.75     0  03:56        0.01
  56719                JUNCTION     0.01     0.01    20.30     0  03:54        0.01
  56720                JUNCTION     0.01     0.01    19.58     0  05:28        0.01
  56721                JUNCTION     0.01     0.01    19.32     0  05:29        0.01
  56722                JUNCTION     0.02     0.02    18.41     0  08:00        0.02
  56723                JUNCTION     0.02     0.02    18.30     0  08:00        0.02
  56724                JUNCTION     0.05     0.08    20.68     0  07:28        0.08
  56726                JUNCTION     0.00     0.01    19.81     0  07:58        0.01
  56727                JUNCTION     0.01     0.01    19.57     0  08:00        0.01
  57125                JUNCTION     0.00     0.00    21.30     0  00:00        0.00
  57126                JUNCTION     0.00     0.00    21.13     0  00:00        0.00
  58744                JUNCTION     0.02     0.02    18.32     0  08:00        0.02
  58745                JUNCTION     0.02     0.02    18.35     0  08:00        0.02
  58746                JUNCTION     0.02     0.02    18.44     0  08:00        0.02
  59036                JUNCTION     0.02     0.04    19.85     0  07:35        0.04
  59037                JUNCTION     0.02     0.04    20.22     0  07:33        0.04
  59038                JUNCTION     0.01     0.04    20.54     0  07:30        0.04
  59255                JUNCTION     0.00     0.00    20.35     0  07:40        0.00
  60045                JUNCTION     0.02     0.02    18.86     0  06:30        0.02
  60047                JUNCTION     0.00     0.00    22.69     0  08:00        0.00
  60064                JUNCTION     0.00     0.00    19.36     0  00:00        0.00
  60064A               JUNCTION     0.02     0.02    19.22     0  07:53        0.02
  60067                JUNCTION     0.00     0.00    19.45     0  00:00        0.00
  60068                JUNCTION     0.00     0.00    19.90     0  00:00        0.00
  60069                JUNCTION     0.00     0.00    20.50     0  00:00        0.00
  60070                JUNCTION     0.00     0.00    21.06     0  00:00        0.00
  60073                JUNCTION     0.00     0.01    24.37     0  08:00        0.01
  60075                JUNCTION     0.00     0.00    23.40     0  08:00        0.00
  60076                JUNCTION     0.00     0.01    23.84     0  08:00        0.01
  60247                JUNCTION     0.00     0.05    27.76     0  08:00        0.05
  60248                JUNCTION     0.00     0.04    27.14     0  08:00        0.04
  60249                JUNCTION     0.00     0.03    26.36     0  08:00        0.03
  60250                JUNCTION     0.00     0.02    25.33     0  08:00        0.02
  60255                JUNCTION     0.30     0.86    52.71     0  07:39        0.86
  60256                JUNCTION     0.01     0.07    49.67     0  06:32        0.06
  60257                JUNCTION     0.01     0.06    45.99     0  06:35        0.06
  60258                JUNCTION     0.01     0.06    43.73     0  06:41        0.06
  60259                JUNCTION     0.01     0.06    42.33     0  06:43        0.06
  60260                JUNCTION     0.01     0.05    41.81     0  06:49        0.05
  60261                JUNCTION     0.01     0.05    40.11     0  06:53        0.05
  60262                JUNCTION     0.01     0.05    39.40     0  06:59        0.05
  60263                JUNCTION     0.01     0.05    38.55     0  06:59        0.05
  60264                JUNCTION     0.01     0.04    38.40     0  07:07        0.04
  60265                JUNCTION     0.01     0.04    36.85     0  07:08        0.04
  60266                JUNCTION     0.01     0.04    36.69     0  07:09        0.04
  60267                JUNCTION     0.01     0.04    36.40     0  07:09        0.04
  60268                JUNCTION     0.01     0.04    36.20     0  07:13        0.04
  60269                JUNCTION     0.01     0.04    35.40     0  07:15        0.04
  60270                JUNCTION     0.01     0.04    34.51     0  07:20        0.04
  60271                JUNCTION     0.01     0.04    33.73     0  07:23        0.04
  60272                JUNCTION     0.01     0.04    33.13     0  07:29        0.04
  60273                JUNCTION     0.01     0.03    31.41     0  07:30        0.03
  60274                JUNCTION     0.01     0.04    31.15     0  07:33        0.04
  60275                JUNCTION     0.01     0.04    30.42     0  07:36        0.04
  60276                JUNCTION     0.01     0.04    29.92     0  07:45        0.04
  60277                JUNCTION     0.01     0.04    28.54     0  07:54        0.04
  60278                JUNCTION     0.01     0.05    27.84     0  07:54        0.05
  60314                JUNCTION     0.02     0.02    42.37     0  01:31        0.02
  6205                 JUNCTION     0.05     0.06    19.06     0  08:00        0.06
  6206                 JUNCTION     0.03     0.03    18.19     0  07:50        0.03
  6207                 JUNCTION     0.02     0.03    18.55     0  07:45        0.03
  6208                 JUNCTION     0.01     0.01    19.46     0  01:21        0.01
  6209                 JUNCTION     0.01     0.01    19.22     0  02:18        0.01
  6210                 JUNCTION     0.03     0.03    18.90     0  07:42        0.03
  6211                 JUNCTION     0.02     0.03    19.16     0  07:39        0.03
  6212                 JUNCTION     0.02     0.02    19.41     0  07:37        0.02
  6213                 JUNCTION     0.02     0.02    19.65     0  07:33        0.02
  6214                 JUNCTION     0.02     0.02    20.01     0  07:30        0.02
  6315                 JUNCTION     0.01     0.02    18.84     0  08:00        0.02
  6316                 JUNCTION     0.01     0.01    19.04     0  07:59        0.01
  6317                 JUNCTION     0.01     0.01    19.21     0  07:49        0.01
  6325                 JUNCTION     0.27     0.29    16.54     0  08:00        0.29
  6326                 JUNCTION     0.01     0.02    16.43     0  08:00        0.02
  6327                 JUNCTION     0.02     0.07    16.97     0  04:01        0.07
  6331                 JUNCTION     0.01     0.05    17.56     0  04:15        0.05
  6332                 JUNCTION     0.01     0.06    18.09     0  04:13        0.06
  6333                 JUNCTION     0.01     0.01    18.68     0  07:52        0.01
  6335                 JUNCTION     0.01     0.01    18.50     0  01:53        0.01
  6336                 JUNCTION     0.01     0.01    18.41     0  08:00        0.01
  6337                 JUNCTION     0.00     0.00    18.63     0  08:00        0.00
  6374                 JUNCTION     0.01     0.01    16.97     0  00:07        0.01
  6375                 JUNCTION     0.68     0.89    17.54     0  00:04        0.89
  6414                 JUNCTION     0.00     0.01    16.90     0  07:56        0.01
  6415                 JUNCTION     0.01     0.01    16.72     0  08:00        0.01
  6416                 JUNCTION     0.01     0.01    16.89     0  08:00        0.01
  6518                 JUNCTION     0.08     0.10    17.48     0  07:44        0.10
  6519                 JUNCTION     0.03     0.05    19.56     0  07:46        0.05
  6520                 JUNCTION     0.01     0.01    18.05     0  08:00        0.01
  6521                 JUNCTION     0.04     0.05    17.65     0  08:00        0.05
  6522                 JUNCTION     0.01     0.01    18.40     0  08:00        0.01
  6523                 JUNCTION     0.01     0.01    18.73     0  08:00        0.01
  6524                 JUNCTION     0.01     0.01    18.94     0  01:06        0.01
  6543                 JUNCTION     0.12     0.47    18.16     0  00:08        0.21
  6544                 JUNCTION     0.01     0.01    18.01     0  07:53        0.01
  6545                 JUNCTION     0.93     1.77    18.66     0  00:00        1.01
  6547                 JUNCTION     0.70     1.43    18.55     0  00:01        0.81
  6548                 JUNCTION     0.72     0.94    18.04     0  00:07        0.84
  6549                 JUNCTION     0.41     0.66    18.06     0  00:07        0.51
  6550                 JUNCTION     0.07     0.15    17.92     0  00:12        0.15
  6551                 JUNCTION     0.04     0.07    18.29     0  08:00        0.07
  6552                 JUNCTION     0.04     0.06    18.40     0  08:00        0.06
  6556                 JUNCTION     0.04     0.06    18.52     0  08:00        0.06
  6577                 JUNCTION     0.18     0.52    18.16     0  00:07        0.27
  6578                 JUNCTION     0.01     0.01    18.04     0  08:00        0.01
  6721                 JUNCTION     1.02     1.30    17.89     0  00:02        1.07
  6722                 JUNCTION     1.18     1.50    17.93     0  00:02        1.23
  6824                 JUNCTION     1.04     2.00    18.78     0  00:00        1.12
  68687                JUNCTION     0.03     0.04    18.08     0  08:00        0.04
  68702                JUNCTION     0.02     0.03    18.90     0  08:00        0.03
  68703                JUNCTION     0.03     0.05    18.56     0  08:00        0.05
  68704                JUNCTION     0.01     0.01    18.30     0  08:00        0.01
  68705                JUNCTION     0.00     0.00    18.77     0  00:00        0.00
  68710                JUNCTION     0.01     0.01    18.96     0  08:00        0.01
  68711                JUNCTION     0.00     0.01    19.22     0  07:58        0.01
  68712                JUNCTION     0.00     0.01    19.41     0  07:44        0.01
  6956                 JUNCTION     0.75     0.80    17.25     0  00:05        0.76
  6957                 JUNCTION     0.89     0.90    17.22     0  00:03        0.90
  6958                 JUNCTION     1.29     1.44    17.48     0  00:02        1.31
  6959                 JUNCTION     0.64     0.65    17.18     0  00:05        0.65
  6960                 JUNCTION     0.55     0.59    17.22     0  00:05        0.56
  6961                 JUNCTION     0.34     0.93    17.77     0  00:05        0.89
  6962                 JUNCTION     0.31     0.87    17.74     0  00:06        0.32
  6963                 JUNCTION     0.44     0.60    17.34     0  00:05        0.45
  7000                 JUNCTION     0.01     0.01    17.92     0  02:15        0.01
  7131                 JUNCTION     0.58     0.61    17.36     0  00:32        0.60
  7161                 JUNCTION     0.11     0.15    17.37     0  00:32        0.15
  7162                 JUNCTION     0.50     0.68    17.50     0  00:20        0.54
  7163                 JUNCTION     0.77     1.43    17.98     0  00:11        0.81
  7164                 JUNCTION     0.23     0.26    17.36     0  00:32        0.26
  7165                 JUNCTION     1.80     2.05    17.57     0  00:01        1.83
  7166                 JUNCTION     1.63     1.66    17.35     0  00:33        1.66
  7167                 JUNCTION     0.01     0.01    17.39     0  08:00        0.01
  7168                 JUNCTION     1.99     2.67    18.01     0  00:00        2.01
  7168A                JUNCTION     2.33     2.75    17.75     0  00:00        2.35
  7169                 JUNCTION     0.38     0.58    17.52     0  00:20        0.42
  7170                 JUNCTION     0.13     0.16    17.36     0  00:33        0.16
  7201                 JUNCTION     0.01     0.01    16.64     0  08:00        0.01
  7202                 JUNCTION     0.03     0.05    16.78     0  07:30        0.05
  7203                 JUNCTION     0.01     0.01    17.34     0  00:06        0.01
  7204                 JUNCTION     0.02     0.04    17.02     0  07:26        0.04
  7205                 JUNCTION     0.03     0.06    17.23     0  07:23        0.06
  7207                 JUNCTION     0.02     0.03    17.45     0  08:00        0.03
  7208                 JUNCTION     0.02     0.03    17.67     0  08:00        0.03
  7209                 JUNCTION     0.01     0.01    18.26     0  05:28        0.01
  7210                 JUNCTION     0.07     0.08    17.78     0  08:00        0.08
  7211                 JUNCTION     0.02     0.02    17.94     0  08:00        0.02
  7212                 JUNCTION     0.02     0.02    18.22     0  08:00        0.02
  7213                 JUNCTION     0.06     0.06    18.52     0  08:00        0.06
  7214                 JUNCTION     0.01     0.01    18.90     0  08:00        0.01
  7215                 JUNCTION     0.01     0.01    19.01     0  03:07        0.01
  7216                 JUNCTION     0.01     0.02    18.47     0  08:00        0.02
  7217                 JUNCTION     0.01     0.01    18.84     0  08:00        0.01
  7218                 JUNCTION     0.01     0.01    18.66     0  08:00        0.01
  7219                 JUNCTION     0.01     0.02    18.91     0  08:00        0.02
  7220                 JUNCTION     0.00     0.00    19.26     0  00:00        0.00
  7221                 JUNCTION     0.00     0.01    19.03     0  08:00        0.01
  7222                 JUNCTION     0.01     0.01    19.15     0  08:00        0.01
  72289                JUNCTION     0.01     0.01    20.12     0  07:22        0.01
  72290                JUNCTION     0.01     0.01    20.38     0  01:28        0.01
  72291                JUNCTION     0.02     0.02    18.62     0  08:00        0.02
  72374                JUNCTION     0.01     0.02    18.98     0  08:00        0.02
  7291                 JUNCTION     0.00     0.00    20.23     0  00:00        0.00
  7292                 JUNCTION     0.01     0.01    19.78     0  02:16        0.01
  74414                JUNCTION     0.01     0.01    19.89     0  07:58        0.01
  74425                JUNCTION     0.00     0.00    19.24     0  00:00        0.00
  74649                JUNCTION     0.02     0.02    19.63     0  07:34        0.02
  74724                JUNCTION     0.01     0.01    20.19     0  07:45        0.01
  74726                JUNCTION     0.01     0.01    19.20     0  08:00        0.01
  74727                JUNCTION     0.01     0.01    19.39     0  08:00        0.01
  74728                JUNCTION     0.01     0.01    19.58     0  07:53        0.01
  74729                JUNCTION     0.01     0.01    19.79     0  07:59        0.01
  74730                JUNCTION     0.01     0.01    20.02     0  07:57        0.01
  74731                JUNCTION     0.01     0.01    20.18     0  00:43        0.01
  74822                JUNCTION     0.01     0.01    20.45     0  01:16        0.01
  7483                 JUNCTION     0.04     0.05    18.81     0  08:00        0.05
  7484                 JUNCTION     0.01     0.01    19.07     0  07:54        0.01
  7485                 JUNCTION     0.00     0.01    18.90     0  08:00        0.01
  7486                 JUNCTION     0.01     0.01    18.59     0  08:00        0.01
  7487                 JUNCTION     0.26     0.35    18.35     0  08:00        0.35
  7488                 JUNCTION     0.01     0.01    18.85     0  08:00        0.01
  7489                 JUNCTION     0.05     0.06    19.16     0  08:00        0.06
  7490                 JUNCTION     0.04     0.05    19.24     0  08:00        0.05
  7491                 JUNCTION     0.04     0.05    19.31     0  08:00        0.05
  7492                 JUNCTION     0.08     0.10    19.47     0  08:00        0.10
  7600                 JUNCTION     0.04     0.05    18.25     0  08:00        0.05
  7601                 JUNCTION     0.03     0.05    18.40     0  07:58        0.05
  7602                 JUNCTION     0.03     0.04    18.70     0  07:56        0.04
  7603                 JUNCTION     0.03     0.04    18.79     0  07:54        0.04
  7604                 JUNCTION     0.03     0.05    18.91     0  07:53        0.05
  7605                 JUNCTION     0.03     0.04    19.11     0  07:51        0.04
  7606                 JUNCTION     0.04     0.06    19.13     0  07:50        0.06
  7607                 JUNCTION     0.04     0.05    19.35     0  07:47        0.05
  7608                 JUNCTION     0.02     0.03    17.60     0  07:42        0.03
  7609                 JUNCTION     0.02     0.03    17.97     0  07:42        0.03
  7631                 JUNCTION     1.77     2.28    18.12     0  00:00        1.82
  7648                 JUNCTION     0.01     0.01    17.96     0  08:00        0.01
  7670                 JUNCTION     0.27     0.72    18.27     0  00:06        0.40
  7671                 JUNCTION     0.01     0.02    17.91     0  00:13        0.02
  7683                 JUNCTION     0.01     0.01    17.59     0  00:16        0.01
  7684                 JUNCTION     0.31     0.40    17.42     0  00:23        0.34
  7685                 JUNCTION     0.18     0.29    17.44     0  00:23        0.21
  7696                 JUNCTION     0.04     0.06    17.36     0  00:33        0.06
  7697                 JUNCTION     0.01     0.01    17.46     0  00:20        0.01
  77150                JUNCTION     0.01     0.01    18.87     0  08:00        0.01
  77151                JUNCTION     0.00     0.00    19.17     0  07:40        0.00
  77152                JUNCTION     0.00     0.00    19.32     0  00:52        0.00
  7778                 JUNCTION     0.01     0.01    16.86     0  00:09        0.01
  7779                 JUNCTION     0.01     0.01    16.51     0  08:00        0.01
  7780                 JUNCTION     0.01     0.08    16.40     0  00:00        0.06
  7782                 JUNCTION     0.41     0.52    16.41     0  00:00        0.44
  7783                 JUNCTION     0.17     0.24    16.38     0  00:02        0.22
  7784                 JUNCTION     0.02     0.06    16.50     0  04:02        0.06
  7786                 JUNCTION     0.01     0.01    16.56     0  08:00        0.01
  7787                 JUNCTION     0.01     0.01    16.91     0  08:00        0.01
  7788                 JUNCTION     0.02     0.07    17.20     0  07:25        0.07
  7789                 JUNCTION     0.00     0.01    16.66     0  08:00        0.01
  7790                 JUNCTION     0.01     0.07    17.53     0  07:24        0.07
  7791                 JUNCTION     0.01     0.02    16.35     0  08:00        0.02
  7792                 JUNCTION     0.01     0.01    16.75     0  08:00        0.01
  7793                 JUNCTION     0.00     0.01    17.64     0  08:00        0.01
  78984                JUNCTION     0.01     0.01    18.81     0  07:51        0.01
  7911                 JUNCTION     1.03     1.16    17.44     0  00:09        1.08
  7912                 JUNCTION     1.39     1.88    17.80     0  00:04        1.44
  7913                 JUNCTION     0.00     0.00    20.25     0  00:00        0.00
  7917                 JUNCTION     0.56     1.09    18.34     0  00:02        0.68
  7918                 JUNCTION     0.06     0.16    17.93     0  00:12        0.16
  7919                 JUNCTION     0.00     0.07    17.93     0  00:12        0.06
  7921                 JUNCTION     0.01     0.01    17.77     0  08:00        0.01
  8008                 JUNCTION     0.01     0.01    17.46     0  01:09        0.01
  8009                 JUNCTION     0.01     0.01    17.26     0  02:48        0.01
  8010                 JUNCTION     0.00     0.01    19.65     0  08:00        0.01
  8011                 JUNCTION     0.00     0.00    19.88     0  08:00        0.00
  8012                 JUNCTION     0.00     0.00    19.46     0  00:00        0.00
  8013                 JUNCTION     0.01     0.01    19.55     0  08:00        0.01
  80162                JUNCTION     0.00     0.01    20.60     0  07:59        0.01
  80163                JUNCTION     0.00     0.01    21.16     0  07:33        0.01
  80166                JUNCTION     0.01     0.01    20.96     0  07:58        0.01
  8027                 JUNCTION     0.01     0.01    17.38     0  03:29        0.01
  8062                 JUNCTION     0.01     0.02    16.03     0  08:00        0.02
  8063                 JUNCTION     0.01     0.02    16.33     0  08:00        0.02
  8064                 JUNCTION     0.01     0.01    16.71     0  08:00        0.01
  8065                 JUNCTION     0.01     0.01    17.15     0  08:00        0.01
  8137                 JUNCTION     0.04     0.06    17.97     0  08:00        0.06
  8138                 JUNCTION     0.02     0.02    18.17     0  08:00        0.02
  8139                 JUNCTION     0.01     0.02    18.29     0  08:00        0.02
  8140                 JUNCTION     0.01     0.02    18.50     0  08:00        0.02
  8141                 JUNCTION     0.01     0.01    18.73     0  08:00        0.01
  8142                 JUNCTION     0.01     0.01    18.95     0  04:56        0.01
  8160                 JUNCTION     0.50     0.55    17.37     0  00:20        0.54
  8161                 JUNCTION     0.61     0.67    17.38     0  00:20        0.65
  F1028                JUNCTION     0.12     0.15    19.73     0  07:45        0.15
  F1140                JUNCTION    14.46    14.86    29.86     0  00:07       14.85
  F12                  JUNCTION    10.12    11.02    27.52     0  00:07       10.91
  F1284                JUNCTION     5.94     7.63    24.13     0  00:07        7.61
  F13001RR             JUNCTION    17.95    18.21    32.29     0  00:08       18.21
  F14                  JUNCTION    10.23    11.08    27.73     0  00:07       10.98
  F4014                JUNCTION     1.94     2.12    19.36     0  07:55        2.12
  F4021                JUNCTION     2.67     3.05    19.75     0  07:44        3.05
  F40455               JUNCTION     0.14     1.21    21.10     0  08:00        1.21
  F40487               JUNCTION     2.77     4.12    21.12     0  07:59        4.11
  F49209               JUNCTION     8.13    26.21    67.51     0  07:38       26.20
  F50215               JUNCTION     0.05     4.06    23.56     0  07:14        4.05
  F50216               JUNCTION     0.03     3.61    22.61     0  07:14        3.44
  F50217               JUNCTION     0.02     2.98    21.48     0  05:58        2.94
  F50218               JUNCTION     0.00     0.08    18.18     0  04:10        0.08
  F56422               JUNCTION     7.39     8.83    25.33     0  00:07        8.79
  F56513               JUNCTION     0.15     0.37    20.95     0  07:26        0.37
  F56725               JUNCTION     0.13     0.20    20.75     0  07:27        0.20
  F60115               JUNCTION     0.10     0.12    19.36     0  08:00        0.12
  F60134               JUNCTION     0.01     0.12    17.48     0  07:48        0.12
  F60237               JUNCTION    17.97    18.23    32.31     0  00:08       18.23
  F60237B              JUNCTION    18.02    18.26    32.34     0  00:08       18.26
  F60307               JUNCTION     5.86    22.78    67.23     0  07:38       22.76
  F60308               JUNCTION     5.84    22.63    67.11     0  07:38       22.62
  F60309               JUNCTION     5.75    22.46    67.04     0  07:38       22.44
  F60312               JUNCTION     1.67    15.45    65.05     0  02:55       11.70
  F60313               JUNCTION     2.98    18.14    66.01     0  07:38       18.11
  F60320               JUNCTION     5.66    22.14    66.82     0  07:38       22.12
  F60322               JUNCTION     2.57     8.15    55.34     0  05:15        7.09
  F60323               JUNCTION     2.56     6.73    53.92     0  05:15        6.14
  F60323B              JUNCTION     0.84     2.96    53.45     0  05:15        2.59
  F60348               JUNCTION     0.05     4.25    24.27     0  07:14        4.24
  F60373               JUNCTION     0.22     0.26    19.73     0  07:44        0.26
  F60444               JUNCTION     0.04     1.67    19.28     0  06:50        1.62
  F60476               JUNCTION    10.70    11.58    27.58     0  00:07       11.47
  F60712               JUNCTION     0.65     7.14    58.22     0  05:15        5.83
  F60712A              JUNCTION     0.94     6.55    56.92     0  05:15        5.30
  F60712B              JUNCTION     1.26     6.33    56.06     0  05:15        5.16
  F60714               JUNCTION     1.05     9.24    59.65     0  05:15        8.29
  F60718               JUNCTION     7.06     8.56    25.06     0  00:07        8.52
  F60719               JUNCTION     6.29     7.97    24.47     0  00:07        7.93
  F60720               JUNCTION     6.24     7.92    24.47     0  00:07        7.88
  F60721               JUNCTION    15.30    17.39    33.89     0  00:02       15.58
  F60947               JUNCTION     0.09     0.32    20.92     0  07:26        0.31
  F62232               JUNCTION    10.24    11.19    27.69     0  00:07       11.13
  F68681               JUNCTION     2.51     2.94    20.07     0  07:59        2.94
  F68683               JUNCTION     0.02     0.03    20.07     0  07:59        0.03
  F68688               JUNCTION     0.04     0.06    19.96     0  08:00        0.06
  F70445               JUNCTION    11.18    11.97    28.47     0  00:07       11.90
  F81433               JUNCTION    12.41    13.07    29.07     0  00:07       13.01
  F81433B              JUNCTION    12.40    13.06    29.06     0  00:07       13.00
  FKING                JUNCTION    13.40    13.81    29.81     0  00:07       13.80
  GA1-MAG              JUNCTION     0.03     0.04    22.04     0  07:59        0.04
  GA1-MUR              JUNCTION     0.00     0.00    22.00     0  00:00        0.00
  GA3-A                JUNCTION     0.01     0.01    22.01     0  07:28        0.01
  GA3-B                JUNCTION     0.01     0.01    22.01     0  06:58        0.01
  OFALL-22SGRN         OUTFALL      0.78     2.50    17.50     0  07:01        2.50
  ADAMB14              STORAGE      0.57     0.60    17.20     0  00:46        0.60
  BANKB16              STORAGE      0.31     0.60    16.20     0  07:47        0.60
  CHERB19              STORAGE      0.70     0.75    17.43     0  01:04        0.75
  COLSB12              STORAGE      2.92     3.00    17.90     0  00:00        3.00
  COVEB37              STORAGE      0.33     0.60    16.30     0  04:09        0.60
  FARNB20              STORAGE      0.94     1.00    17.08     0  00:55        1.00
  GA1                  STORAGE      0.03     0.04    22.04     0  07:33        0.04
  GA15                 STORAGE      0.13     0.14    42.52     0  00:18        0.14
  GA3                  STORAGE      0.01     0.01    22.01     0  07:28        0.01
  GA4                  STORAGE      0.02     0.02    22.02     0  05:17        0.02
  GA5                  STORAGE      0.01     0.02    22.02     0  08:00        0.02
  GA6A                 STORAGE      0.02     0.02    22.02     0  00:17        0.02
  KINGB11              STORAGE      2.99     3.00    17.35     0  00:00        3.00
  MOORB18              STORAGE      2.93     3.00    17.87     0  00:00        3.00
  NOTTB38              STORAGE      0.31     0.60    17.80     0  07:25        0.60
  PURKB7               STORAGE      2.97     3.00    16.33     0  00:00        3.00
  PURSB17              STORAGE      0.32     0.60    15.74     0  07:23        0.60
  RENW                 STORAGE      1.00     1.20    42.29     0  04:03        1.20
  REN_O                STORAGE      0.00     0.00    41.80     0  00:00        0.00
  ROSEB40              STORAGE      0.86     0.95    17.93     0  01:23        0.95
  
  
  *******************
  Node Inflow Summary
  *******************
  
  -------------------------------------------------------------------------------------------------
                                  Maximum  Maximum                  Lateral       Total        Flow
                                  Lateral    Total  Time of Max      Inflow      Inflow     Balance
                                   Inflow   Inflow   Occurrence      Volume      Volume       Error
  Node                 Type           LPS      LPS  days hr:min    10^6 ltr    10^6 ltr     Percent
  -------------------------------------------------------------------------------------------------
  1138                 JUNCTION      0.05     2.17     0  07:46    0.000617      0.0267       0.334
  1182                 JUNCTION      0.01     0.27     0  08:00    7.54e-05     0.00526       0.531
  1242                 JUNCTION      0.01     5.15     0  08:00    0.000252      0.0612       0.888
  28749                JUNCTION      0.08     0.08     0  07:00     0.00105     0.00105       1.459
  28750                JUNCTION      0.00     0.52     0  07:30           0      0.0135       0.945
  32870                JUNCTION      0.02     2.71     0  08:00    0.000218      0.0538       0.313
  33740                JUNCTION      0.15     1.91     0  07:38     0.00419       0.021       1.138
  33741                JUNCTION      0.00     1.84     0  07:36           0       0.017       1.019
  40459                JUNCTION      0.03     0.03     0  07:00    0.000391    0.000391       2.575
  40460                JUNCTION      0.04     0.07     0  08:00    0.000537    0.000918       2.595
  40461                JUNCTION      0.02     0.18     0  08:00    0.000339     0.00271       0.512
  40462                JUNCTION      0.02     4.57     0  08:00     0.00026      0.0581       0.108
  40675                JUNCTION      0.00     0.04     0  07:01    4.52e-05      0.0012       0.494
  40698                JUNCTION      0.03     0.03     0  07:00     0.00047     0.00047       2.129
  41319                JUNCTION      0.06     0.06     0  07:00    0.000798    0.000798       2.741
  41320                JUNCTION      0.02     0.08     0  08:00    0.000501      0.0015       1.813
  41321                JUNCTION      0.01     0.01     0  00:00    0.000225    0.000225       1.841
  41325                JUNCTION      0.00     0.00     0  00:00           0           0       0.000 ltr
  43699                JUNCTION      0.01     0.03     0  00:33    0.000374    0.000844       0.706
  43700                JUNCTION      0.01     0.04     0  00:37    0.000335     0.00117       1.734
  43701                JUNCTION      0.02     0.02     0  00:00    0.000475    0.000475       1.175
  45877                JUNCTION      0.02     0.05     0  07:02    0.000262     0.00114       0.655
  48981                JUNCTION      0.05     0.13     0  07:59    0.000674     0.00174       2.128
  48982                JUNCTION      0.02     4.31     0  08:00    0.000327      0.0551       0.380
  48983                JUNCTION      0.04     4.36     0  08:00    0.000585      0.0555       1.194
  48984                JUNCTION      0.03     4.16     0  08:00    0.000369      0.0534       0.589
  48985                JUNCTION      0.04     4.06     0  07:59    0.000565      0.0525       0.919
  48986                JUNCTION      0.03     0.08     0  07:24    0.000365     0.00184       0.621
  49025                JUNCTION      0.00     0.00     0  00:00           0           0       0.000 ltr
  49026                JUNCTION      0.00     0.00     0  00:00           0           0       0.000 ltr
  49027                JUNCTION      0.02     4.37     0  08:00    0.000506      0.0553       0.385
  49102                JUNCTION      0.00     0.00     0  00:00           0           0       0.000 ltr
  49103                JUNCTION      0.02     0.02     0  00:00    0.000506    0.000506       1.514
  49104                JUNCTION      0.03     0.05     0  03:01    0.000993     0.00149       0.954
  50136                JUNCTION      0.10     6.63     0  00:02     0.00139     0.00211      45.177
  50148                JUNCTION      0.03     0.41     0  08:00    0.000374     0.00668       0.182
  50149                JUNCTION      0.06     0.06     0  00:00     0.00173     0.00173       0.629
  50150                JUNCTION      0.02     0.32     0  08:00     0.00071     0.00463       0.741
  50151                JUNCTION      0.05     0.19     0  08:00    0.000628      0.0025       2.193
  50152                JUNCTION      0.07     0.07     0  07:00    0.000933    0.000933       1.087
  50154                JUNCTION      0.06     0.06     0  07:00     0.00078     0.00078       1.376
  50155                JUNCTION      0.05     0.05     0  07:00    0.000713    0.000713       1.408
  50156                JUNCTION      0.00     0.00     0  00:00           0           0       0.000 ltr
  50157                JUNCTION      0.07     0.07     0  07:00    0.000974    0.000974       3.063
  50720                JUNCTION      0.05     0.11     0  07:13    0.000678     0.00249      28.435
  50721                JUNCTION      0.06     0.06     0  00:00     0.00182     0.00182       0.452
  50831                JUNCTION      0.01     2.70     0  08:00    0.000386      0.0372       0.300
  51200                JUNCTION      0.03     0.03     0  00:00     0.00083     0.00083       1.176
  51201                JUNCTION      0.00     0.11     0  08:00           0     0.00147      52.625
  51514                JUNCTION      0.02     0.02     0  07:00    0.000273    0.000273       2.846
  51776                JUNCTION      0.02     0.12     0  07:22    0.000495     0.00244      30.503
  51777                JUNCTION      0.06     0.06     0  07:00    0.000772    0.000772       1.166
  51778                JUNCTION      0.04     0.04     0  00:00     0.00121     0.00121       2.296
  51779                JUNCTION      0.02     0.14     0  07:56    0.000328      0.0022       1.203
  51780                JUNCTION      0.01     0.18     0  07:58    0.000428     0.00297       0.899
  51781                JUNCTION      0.02     0.21     0  08:00    0.000326     0.00327       0.546
  51782                JUNCTION      0.05     0.26     0  08:00    0.000731     0.00398       2.305
  51783                JUNCTION      0.05     0.31     0  08:00     0.00132     0.00522       0.312
  53566                JUNCTION      0.00     0.00     0  00:00           0           0       0.000 ltr
  53568                JUNCTION      0.02     2.74     0  08:00    0.000708      0.0543       0.244
  54                   JUNCTION      0.73     1.23     0  05:17       0.021       0.035       2.763
  56523                JUNCTION      0.03     6.59     0  07:01    0.000426       0.055       0.214
  56524                JUNCTION      0.00    11.52     0  07:01           0       0.135       0.284
  56525                JUNCTION      0.01   115.17     0  07:03    0.000298         2.8       0.401
  56526                JUNCTION      0.00   150.60     0  07:02           0        2.79       0.054
  56565                JUNCTION      0.08     0.08     0  00:00     0.00224     0.00224       1.517
  56717                JUNCTION      0.00     0.00     0  00:00     8.9e-05     8.9e-05       2.754
  56718                JUNCTION      0.00     0.06     0  05:28    1.66e-05     0.00165       0.555
  56719                JUNCTION      0.05     0.05     0  00:00     0.00157     0.00157       1.310
  56720                JUNCTION      0.00     0.06     0  05:28    1.15e-05     0.00165       0.711
  56721                JUNCTION      0.00     0.06     0  05:28           0     0.00164       1.061
  56722                JUNCTION      0.02     0.50     0  08:00    0.000284     0.00998       0.255
  56723                JUNCTION      0.01     0.59     0  08:00    0.000211      0.0121       0.210
  56724                JUNCTION      0.01     2.00     0  07:27    8.32e-05     0.00714     -10.922
  56726                JUNCTION      0.04     0.04     0  07:00    0.000509    0.000509       1.682
  56727                JUNCTION      0.05     0.08     0  08:00    0.000627     0.00113       2.991
  57125                JUNCTION      0.00     0.00     0  00:00           0           0       0.000 ltr
  57126                JUNCTION      0.00     0.00     0  00:00           0           0       0.000 ltr
  58744                JUNCTION      0.01     0.67     0  08:00    0.000265      0.0174       1.134
  58745                JUNCTION      0.02     0.66     0  08:00    0.000525      0.0172       0.118
  58746                JUNCTION      0.03     0.64     0  07:00    0.000434      0.0169       1.598
  59036                JUNCTION      0.15     1.71     0  07:33     0.00198       0.012       1.195
  59037                JUNCTION      0.07     1.80     0  07:30     0.00092      0.0101       0.879
  59038                JUNCTION      0.01     1.85     0  07:29    0.000163     0.00918       0.418
  59255                JUNCTION      0.03     0.03     0  07:00    0.000372    0.000372       1.444
  60045                JUNCTION      0.01     0.61     0  06:41    0.000329      0.0167       1.057
  60047                JUNCTION      0.00     0.00     0  08:00           0    2.37e-07       0.237 ltr
  60064                JUNCTION      0.00     0.00     0  00:00           0           0       0.000 ltr
  60064A               JUNCTION      0.00     0.63     0  00:25           0      0.0171       4.478
  60067                JUNCTION      0.00     0.00     0  00:00           0           0       0.000 ltr
  60068                JUNCTION      0.00     0.00     0  00:00           0           0       0.000 ltr
  60069                JUNCTION      0.00     0.00     0  00:00           0           0       0.000 ltr
  60070                JUNCTION      0.00     0.00     0  00:00           0           0       0.000 ltr
  60073                JUNCTION      0.00     0.56     0  08:00           0    0.000297     733.253
  60075                JUNCTION      0.00     0.01     0  08:00           0    2.45e-06       2.210 ltr
  60076                JUNCTION      0.00     0.12     0  08:00           0    3.56e-05      33.171 ltr
  60247                JUNCTION      0.00     2.34     0  07:54           0     0.00484      55.326
  60248                JUNCTION      0.00     2.13     0  08:00           0     0.00312      71.234
  60249                JUNCTION      0.00     1.72     0  08:00           0     0.00182     100.344
  60250                JUNCTION      0.00     1.18     0  08:00           0    0.000908     206.034
  60255                JUNCTION      0.00    45.00     0  05:15           0      0.0241       6.882
  60256                JUNCTION      0.00    20.40     0  07:40           0      0.0205       3.980
  60257                JUNCTION      0.00    11.47     0  06:32           0      0.0197       4.567
  60258                JUNCTION      0.00     8.44     0  06:35           0      0.0189      11.753
  60259                JUNCTION      0.00     5.76     0  06:41           0      0.0169       4.297
  60260                JUNCTION      0.00     5.58     0  06:43           0      0.0162      13.001
  60261                JUNCTION      0.00     4.54     0  06:49           0      0.0143       8.012
  60262                JUNCTION      0.00     4.23     0  06:54           0      0.0133       7.407
  60263                JUNCTION      0.00     3.85     0  06:59           0      0.0123       1.224
  60264                JUNCTION      0.00     3.85     0  07:00           0      0.0122       7.511
  60265                JUNCTION      0.00     3.26     0  07:08           0      0.0113       0.406
  60266                JUNCTION      0.00     3.26     0  07:08           0      0.0113       0.959
  60267                JUNCTION      0.00     3.26     0  07:09           0      0.0112       0.444
  60268                JUNCTION      0.00     3.26     0  07:09           0      0.0111       3.051
  60269                JUNCTION      0.00     3.17     0  07:13           0      0.0108       1.763
  60270                JUNCTION      0.00     3.15     0  07:15           0      0.0106       5.062
  60271                JUNCTION      0.00     3.02     0  07:20           0      0.0101       4.554
  60272                JUNCTION      0.00     2.94     0  07:24           0     0.00967       8.156
  60273                JUNCTION      0.00     2.80     0  07:29           0     0.00894       0.386
  60274                JUNCTION      0.00     2.80     0  07:30           0      0.0089       6.224
  60275                JUNCTION      0.00     2.74     0  07:33           0     0.00838       6.214
  60276                JUNCTION      0.00     2.71     0  07:37           0     0.00789      23.311
  60277                JUNCTION      0.00     2.48     0  07:45           0      0.0064      29.406
  60278                JUNCTION      0.00     2.34     0  07:54           0     0.00495       2.180
  60314                JUNCTION      1.40     1.76     0  02:15      0.0403      0.0505       0.053
  6205                 JUNCTION      0.03     4.16     0  08:00    0.000789      0.0803       1.140
  6206                 JUNCTION      0.16     1.16     0  07:45     0.00216      0.0252       1.691
  6207                 JUNCTION      0.13     1.00     0  07:43     0.00389      0.0233       0.968
  6208                 JUNCTION      0.06     0.06     0  00:00     0.00183     0.00183       0.771
  6209                 JUNCTION      0.06     0.12     0  01:36     0.00171     0.00352       0.959
  6210                 JUNCTION      0.09     0.87     0  07:40     0.00119      0.0196       1.063
  6211                 JUNCTION      0.10     0.66     0  07:37     0.00136       0.015       0.920
  6212                 JUNCTION      0.00     0.56     0  07:35           0      0.0138       0.745
  6213                 JUNCTION      0.01     0.53     0  07:33    0.000142      0.0135       0.191
  6214                 JUNCTION      0.05     0.45     0  07:28     0.00157      0.0125       0.291
  6315                 JUNCTION      0.12     0.27     0  07:59     0.00166     0.00451       2.423
  6316                 JUNCTION      0.06     0.15     0  07:58     0.00174     0.00288       0.904
  6317                 JUNCTION      0.08     0.08     0  07:00     0.00116     0.00116       1.140
  6325                 JUNCTION      0.04     0.13     0  08:00     0.00129     0.00333      11.429
  6326                 JUNCTION      0.02     0.20     0  08:00    0.000615     0.00374       1.206
  6327                 JUNCTION      0.02     9.76     0  04:00    0.000631      0.0185       0.516
  6331                 JUNCTION      0.00     4.12     0  04:13           0     0.00596       0.353
  6332                 JUNCTION      0.00    11.42     0  07:15    0.000132       0.006       0.592
  6333                 JUNCTION      0.07     0.07     0  07:00    0.000928    0.000928       1.237
  6335                 JUNCTION      0.04     0.04     0  00:00     0.00108     0.00108       0.986
  6336                 JUNCTION      0.04     0.11     0  07:52    0.000612     0.00153       3.559
  6337                 JUNCTION      0.02     0.02     0  07:00    0.000211    0.000211       5.727
  6374                 JUNCTION      0.07     0.07     0  00:00     0.00207     0.00207       0.594
  6375                 JUNCTION      0.02    11.44     0  00:04    0.000318     0.00136     206.226
  6414                 JUNCTION      0.02     0.02     0  07:00    0.000286    0.000286       2.156
  6415                 JUNCTION      0.06     0.08     0  07:59     0.00184     0.00212       3.320
  6416                 JUNCTION      0.07     0.07     0  07:00    0.000967    0.000967       2.246
  6518                 JUNCTION      0.02     2.16     0  07:43    0.000214      0.0294       0.836
  6519                 JUNCTION      0.00     2.14     0  07:45    3.61e-05      0.0262       0.582
  6520                 JUNCTION      0.01     0.14     0  08:00    0.000311     0.00335       0.256
  6521                 JUNCTION      0.01     0.14     0  08:00    8.97e-05     0.00343       1.808
  6522                 JUNCTION      0.04     0.13     0  08:00     0.00117     0.00307       0.879
  6523                 JUNCTION      0.04     0.09     0  07:04    0.000478     0.00192       1.309
  6524                 JUNCTION      0.05     0.05     0  00:00     0.00145     0.00145       0.725
  6543                 JUNCTION      0.03     4.92     0  00:05    0.000823     0.00395      10.354
  6544                 JUNCTION      0.13     0.96     0  00:08     0.00182     0.00183       1.414
  6545                 JUNCTION      0.03   176.63     0  00:00    0.000961      0.0976       4.872
  6547                 JUNCTION      0.03    72.19     0  00:01    0.000797      0.0897       3.901
  6548                 JUNCTION      0.01    31.78     0  00:02    0.000374      0.0744       2.598
  6549                 JUNCTION      0.01    22.28     0  00:03    0.000337      0.0697       3.985
  6550                 JUNCTION      0.03     7.85     0  00:08    0.000775      0.0631       0.828
  6551                 JUNCTION      0.03     4.74     0  08:00    0.000863      0.0543       1.656
  6552                 JUNCTION      0.03     4.72     0  08:00    0.000787      0.0538       0.659
  6556                 JUNCTION      0.12     4.69     0  08:00      0.0017      0.0541       2.017
  6577                 JUNCTION      0.04    10.82     0  00:07    0.000504      0.0025      46.907
  6578                 JUNCTION      0.04     0.25     0  00:07    0.000606     0.00107       3.009
  6721                 JUNCTION      0.01    11.70     0  00:02     8.5e-05    0.000404      98.050
  6722                 JUNCTION      0.03    14.13     0  00:01    0.000386     0.00173     107.006
  6824                 JUNCTION      0.01   232.86     0  00:00     0.00037       0.099       0.818
  68687                JUNCTION      0.05     1.46     0  08:00    0.000652      0.0233       0.185
  68702                JUNCTION      0.00     1.30     0  07:59           0      0.0218       5.199
  68703                JUNCTION      0.00     1.29     0  08:00           0      0.0208       3.790
  68704                JUNCTION      0.00     0.12     0  08:00           0     0.00262       0.537
  68705                JUNCTION      0.00     0.00     0  00:00           0           0       0.000 ltr
  68710                JUNCTION      0.07     0.12     0  07:59     0.00202     0.00265       1.246
  68711                JUNCTION      0.02     0.05     0  07:59    0.000275    0.000643       1.411
  68712                JUNCTION      0.03     0.03     0  07:00    0.000374    0.000374       1.703
  6956                 JUNCTION      0.03    37.67     0  00:03    0.000364       0.339       0.402
  6957                 JUNCTION      0.05    46.33     0  00:03     0.00142       0.891       0.145
  6958                 JUNCTION      0.02    54.99     0  00:01    0.000317       0.896       0.542
  6959                 JUNCTION      0.01    33.64     0  00:05    0.000163        0.34       0.468
  6960                 JUNCTION      0.01    31.56     0  00:05    0.000131     0.00285      93.741
  6961                 JUNCTION      0.05    11.54     0  00:05     0.00149     0.00192      27.827
  6962                 JUNCTION      0.02    11.15     0  00:06    0.000238    0.000729     163.024
  6963                 JUNCTION      0.02    17.43     0  00:05    0.000212    0.000442      26.718
  7000                 JUNCTION      0.05     0.05     0  00:00     0.00156     0.00156       0.835
  7131                 JUNCTION      0.05     5.56     0  00:05     0.00155     0.00878       7.676
  7161                 JUNCTION      0.05     2.26     0  00:26    0.000744     0.00412      21.978
  7162                 JUNCTION      0.06     4.56     0  00:17     0.00161     0.00513      20.310
  7163                 JUNCTION      0.08     7.62     0  00:10      0.0024     0.00671      26.837
  7164                 JUNCTION      0.04     2.01     0  00:12      0.0011     0.00681       9.365
  7165                 JUNCTION      0.01    26.75     0  00:01     0.00013       0.036       4.048
  7166                 JUNCTION      0.02    18.39     0  00:01    0.000558      0.0106      15.311
  7167                 JUNCTION      0.03     0.10     0  08:00    0.000343     0.00252       0.623
  7168                 JUNCTION      0.06    39.08     0  00:00     0.00179       0.038       1.325
  7168A                JUNCTION      0.00    88.12     0  00:00           0      0.0384       0.881
  7169                 JUNCTION      0.03     4.66     0  00:17    0.000431     0.00274      43.949
  7170                 JUNCTION      0.06     1.86     0  00:21     0.00167     0.00524      10.888
  7201                 JUNCTION      0.02     0.09     0  07:00    0.000238     0.00229       2.067
  7202                 JUNCTION      0.09     2.76     0  07:26     0.00252      0.0244       1.996
  7203                 JUNCTION      0.07     0.07     0  00:00     0.00192     0.00192       0.523
  7204                 JUNCTION      0.00     2.90     0  07:23           0      0.0222       1.479
  7205                 JUNCTION      0.12     3.45     0  07:20      0.0016      0.0207       1.604
  7207                 JUNCTION      0.12     0.90     0  08:00     0.00159      0.0134       1.867
  7208                 JUNCTION      0.00     0.71     0  08:00           0      0.0109       1.509
  7209                 JUNCTION      0.00     0.04     0  02:58    1.72e-05     0.00109       2.043
  7210                 JUNCTION      0.07     0.71     0  08:00    0.000921      0.0111       1.580
  7211                 JUNCTION      0.08     0.60     0  08:00     0.00114      0.0092       1.498
  7212                 JUNCTION      0.05     0.52     0  08:00    0.000727     0.00822       1.923
  7213                 JUNCTION      0.02     0.23     0  08:00    0.000561     0.00329       2.302
  7214                 JUNCTION      0.02     0.07     0  07:28    0.000213     0.00181       1.579
  7215                 JUNCTION      0.06     0.06     0  00:00     0.00162     0.00162       1.523
  7216                 JUNCTION      0.03     0.34     0  08:00    0.000883     0.00588       1.127
  7217                 JUNCTION      0.04     0.11     0  07:44    0.000555     0.00144       3.078
  7218                 JUNCTION      0.05     0.11     0  08:00    0.000733     0.00139       4.328
  7219                 JUNCTION      0.00     0.06     0  08:00           0    0.000709       8.081
  7220                 JUNCTION      0.00     0.00     0  00:00           0           0       0.000 ltr
  7221                 JUNCTION      0.02     0.02     0  07:00    0.000257    0.000257       3.255
  7222                 JUNCTION      0.00     0.06     0  08:00           0    0.000725       2.149
  72289                JUNCTION      0.02     0.08     0  07:28    0.000248     0.00192       0.456
  72290                JUNCTION      0.06     0.06     0  00:00     0.00168     0.00168       0.641
  72291                JUNCTION      0.03     0.34     0  07:59    0.000408     0.00705       1.043
  72374                JUNCTION      0.03     0.31     0  07:59    0.000377     0.00668       0.524
  7291                 JUNCTION      0.00     0.00     0  00:00           0           0       0.000 ltr
  7292                 JUNCTION      0.05     0.05     0  00:00     0.00152     0.00152       1.052
  74414                JUNCTION      0.08     0.08     0  07:00     0.00108     0.00108       1.347
  74425                JUNCTION      0.00     0.00     0  00:00           0           0       0.000 ltr
  74649                JUNCTION      0.03     0.56     0  07:34     0.00036      0.0138       0.303
  74724                JUNCTION      0.03     0.09     0  07:28    0.000382     0.00208       0.655
  74726                JUNCTION      0.02     0.19     0  07:58    0.000337     0.00426       0.667
  74727                JUNCTION      0.03     0.17     0  07:57     0.00077     0.00394       0.423
  74728                JUNCTION      0.03     0.14     0  07:55    0.000383     0.00319       0.605
  74729                JUNCTION      0.03     0.11     0  07:59    0.000928     0.00283       0.573
  74730                JUNCTION      0.03     0.08     0  07:28    0.000382     0.00191       0.714
  74731                JUNCTION      0.05     0.05     0  00:00     0.00154     0.00154       0.530
  74822                JUNCTION      0.06     0.06     0  00:00     0.00171     0.00171       0.714
  7483                 JUNCTION      0.06     4.21     0  08:00    0.000761      0.0802       1.351
  7484                 JUNCTION      0.07     0.07     0  07:00    0.000896    0.000896       1.152
  7485                 JUNCTION      0.00     0.02     0  08:00    6.44e-05    0.000314       2.006
  7486                 JUNCTION      0.00     0.05     0  08:00     1.1e-06    0.000649       2.092
  7487                 JUNCTION      0.03     0.08     0  08:00    0.000432     0.00107      63.175
  7488                 JUNCTION      0.03     0.05     0  08:00    0.000363    0.000671       3.538
  7489                 JUNCTION      0.05     2.87     0  08:00     0.00153      0.0572       0.943
  7490                 JUNCTION      0.02     2.82     0  08:00    0.000628      0.0559       0.384
  7491                 JUNCTION      0.03     2.77     0  08:00    0.000854      0.0551       0.274
  7492                 JUNCTION      0.02     2.70     0  08:00    0.000255      0.0545       1.635
  7600                 JUNCTION      0.01     2.71     0  07:58    0.000196      0.0372       1.266
  7601                 JUNCTION      0.09     2.72     0  07:56     0.00127      0.0375       1.279
  7602                 JUNCTION      0.00     2.38     0  07:54           0      0.0322       1.060
  7603                 JUNCTION      0.07     2.39     0  07:53     0.00192      0.0324       0.541
  7604                 JUNCTION      0.08     2.34     0  07:51     0.00113      0.0307       1.021
  7605                 JUNCTION      0.03     2.27     0  07:50    0.000358      0.0298       0.681
  7606                 JUNCTION      0.02     2.29     0  07:47    0.000298      0.0298       1.036
  7607                 JUNCTION      0.03     2.20     0  07:46    0.000816      0.0274       0.569
  7608                 JUNCTION      0.04     2.00     0  07:42     0.00058      0.0258       0.194
  7609                 JUNCTION      0.11     1.93     0  07:41      0.0031      0.0239       0.672
  7631                 JUNCTION      0.01   102.09     0  00:00    0.000319       0.901       0.441
  7648                 JUNCTION      0.08     0.08     0  07:00     0.00108     0.00108       3.581
  7670                 JUNCTION      0.03    10.43     0  00:06    0.000416     0.00252      77.140
  7671                 JUNCTION      0.03     1.76     0  00:06    0.000919    0.000977       1.484
  7683                 JUNCTION      0.05     0.11     0  01:30     0.00152     0.00307       0.821
  7684                 JUNCTION      0.02     4.20     0  00:20    0.000293     0.00314      62.735
  7685                 JUNCTION      0.01     3.10     0  00:22     0.00016      0.0004      93.622
  7696                 JUNCTION      0.04     1.89     0  00:23     0.00108     0.00121       5.473
  7697                 JUNCTION      0.05     0.27     0  00:20     0.00151     0.00151       1.225
  77150                JUNCTION      0.02     0.06     0  07:40    0.000535     0.00162       0.788
  77151                JUNCTION      0.01     0.02     0  07:08    8.78e-05    0.000596       0.985
  77152                JUNCTION      0.02     0.02     0  00:00    0.000514    0.000514       0.968
  7778                 JUNCTION      0.03     0.03     0  00:00    0.000887    0.000887       0.781
  7779                 JUNCTION      0.02     0.07     0  07:05    0.000248     0.00138       1.840
  7780                 JUNCTION      0.02     5.92     0  00:00    0.000275     0.00173      -0.062
  7782                 JUNCTION      0.03   168.84     0  00:00    0.000395      0.0598       4.686
  7783                 JUNCTION      0.01    33.22     0  00:00     6.9e-05      0.0503       2.619
  7784                 JUNCTION      0.07     6.03     0  04:01    0.000956      0.0194       3.390
  7786                 JUNCTION      0.04     0.18     0  08:00    0.000593     0.00315       0.687
  7787                 JUNCTION      0.09     0.14     0  07:41     0.00125      0.0026       1.883
  7788                 JUNCTION      0.04     4.34     0  07:24      0.0011      0.0117      -0.179
  7789                 JUNCTION      0.02     0.02     0  07:00    0.000229    0.000229       4.608
  7790                 JUNCTION      0.02    14.33     0  07:53     0.00031      0.0108       2.106
  7791                 JUNCTION      0.04     0.24     0  08:00     0.00116     0.00426       2.127
  7792                 JUNCTION      0.05     0.15     0  08:00    0.000667     0.00313       1.459
  7793                 JUNCTION      0.03     0.03     0  07:00     0.00046     0.00046       1.710
  78984                JUNCTION      0.07     0.07     0  07:00     0.00101     0.00101       1.082
  7911                 JUNCTION      0.04    10.00     0  00:07    0.000599      0.0149      18.806
  7912                 JUNCTION      0.05    16.42     0  00:04    0.000623      0.0241      10.896
  7913                 JUNCTION      0.00     0.00     0  00:00           0           0       0.000 ltr
  7917                 JUNCTION      0.02    50.18     0  00:01    0.000278      0.0808       4.604
  7918                 JUNCTION      0.02     3.95     0  00:07    0.000527     0.00181       0.681
  7919                 JUNCTION      0.00     0.83     0  00:10    3.91e-06    0.000154       0.534
  7921                 JUNCTION      0.04     0.08     0  07:04     0.00102     0.00221       1.347
  8008                 JUNCTION      0.04     0.04     0  00:00     0.00102     0.00102       0.867
  8009                 JUNCTION      0.04     0.08     0  06:50     0.00123     0.00224       1.651
  8010                 JUNCTION      0.03     0.03     0  08:00    0.000379    0.000381       4.821
  8011                 JUNCTION      0.00     0.00     0  07:00    2.72e-06    2.72e-06       0.666 ltr
  8012                 JUNCTION      0.00     0.00     0  00:00           0           0       0.000 ltr
  8013                 JUNCTION      0.06     0.06     0  07:00    0.000752    0.000752       3.772
  80162                JUNCTION      0.01     0.08     0  07:59    7.48e-05     0.00101       0.819
  80163                JUNCTION      0.06     0.06     0  07:00    0.000758    0.000758       1.074
  80166                JUNCTION      0.01     0.07     0  07:29    0.000202    0.000952       1.347
  8027                 JUNCTION      0.05     0.05     0  00:00     0.00138     0.00138       1.950
  8062                 JUNCTION      0.02     0.27     0  08:00    0.000207      0.0052       0.415
  8063                 JUNCTION      0.04     0.25     0  08:00     0.00105     0.00503       0.662
  8064                 JUNCTION      0.00     0.07     0  08:00           0     0.00092       3.049
  8065                 JUNCTION      0.07     0.07     0  07:00     0.00095     0.00095       3.272
  8137                 JUNCTION      0.02     4.76     0  08:00     0.00046      0.0539       0.127
  8138                 JUNCTION      0.04     0.38     0  08:00      0.0011      0.0071       1.494
  8139                 JUNCTION      0.10     0.35     0  08:00     0.00134     0.00608       1.357
  8140                 JUNCTION      0.14     0.25     0  08:00     0.00192     0.00483       1.793
  8141                 JUNCTION      0.05     0.11     0  07:59     0.00134     0.00295       1.411
  8142                 JUNCTION      0.02     0.02     0  00:00     0.00051     0.00051       3.451
  8160                 JUNCTION      0.00     3.82     0  00:14           0     0.00511      21.012
  8161                 JUNCTION      0.04     5.12     0  00:12      0.0011      0.0071      16.006
  F1028                JUNCTION      0.00     2.15     0  07:44           0      0.0266       1.598
  F1140                JUNCTION      0.00    32.40     0  00:00           0       0.246       0.183
  F12                  JUNCTION      0.00    48.90     0  00:02           0       0.699       0.709
  F1284                JUNCTION      0.00   130.87     0  00:05           0        2.69       0.739
  F13001RR             JUNCTION      0.00   142.47     0  00:00           0       0.482       2.141
  F14                  JUNCTION      0.00    24.21     0  00:02           0       0.243       0.506
  F4014                JUNCTION      0.00     1.27     0  07:51           0      0.0247       0.888
  F4021                JUNCTION      0.00     2.14     0  07:44           0      0.0272       1.161
  F40455               JUNCTION      0.00     4.57     0  08:00           0      0.0545       3.963
  F40487               JUNCTION      0.00     4.57     0  08:00           0      0.0547       0.418
  F49209               JUNCTION      0.00    73.00     0  01:41           0      0.0439       0.783
  F50215               JUNCTION      0.00    21.00     0  04:09           0     0.00568      -0.931
  F50216               JUNCTION      0.00    16.55     0  05:57           0     0.00573      -0.781
  F50217               JUNCTION      0.00    12.96     0  02:16           0     0.00578      -1.672
  F50218               JUNCTION      0.00    11.14     0  07:15           0     0.00588       0.196
  F56422               JUNCTION      0.00    73.56     0  00:00           0        1.53       0.086
  F56513               JUNCTION      0.00    34.84     0  01:35           0      0.0106       5.031
  F56725               JUNCTION      0.03    21.98     0  07:26    0.000842      0.0102      42.821
  F60115               JUNCTION      0.00     1.28     0  07:49           0      0.0245       7.132
  F60134               JUNCTION      0.00    18.80     0  07:47           0     0.00633       1.790
  F60237               JUNCTION      0.00    74.63     0  00:00           0       0.247       1.806
  F60237B              JUNCTION      0.00    74.63     0  00:00           0       0.243       1.562
  F60307               JUNCTION      0.00    92.07     0  01:41           0      0.0444      -1.831
  F60308               JUNCTION      0.00    74.26     0  01:41           0      0.0481      -2.285
  F60309               JUNCTION      0.00    76.13     0  01:41           0       0.052       1.266
  F60312               JUNCTION      0.00    51.19     0  02:54           0      0.0436       9.158
  F60313               JUNCTION      0.00    72.47     0  01:42           0      0.0505      14.249
  F60320               JUNCTION      0.00    73.90     0  01:41           0      0.0522       2.583
  F60322               JUNCTION      0.00    40.71     0  07:38           0      0.0308       8.608
  F60323               JUNCTION      0.00    41.09     0  05:15           0      0.0283       2.706
  F60323B              JUNCTION      0.00    43.82     0  05:15           0      0.0273       3.121
  F60348               JUNCTION      0.00    31.26     0  07:13           0     0.00535      -5.831
  F60373               JUNCTION      0.00     2.15     0  07:44           0      0.0269       1.163
  F60444               JUNCTION      0.00    20.00     0  01:23           0     0.00905      -9.757
  F60476               JUNCTION      0.00    32.40     0  00:00           0       0.457       0.130
  F60712               JUNCTION      0.00    45.13     0  04:05           0      0.0352       2.440
  F60712A              JUNCTION      0.00    40.71     0  07:38           0      0.0341       7.648
  F60712B              JUNCTION      0.00    40.72     0  07:38           0       0.032       4.429
  F60714               JUNCTION      0.00    45.12     0  04:05           0      0.0392       8.107
  F60718               JUNCTION      0.00    71.97     0  00:01           0        1.53       0.105
  F60719               JUNCTION      0.00    58.88     0  00:05           0        1.16       0.614
  F60720               JUNCTION      0.00    40.66     0  00:05           0       0.694       0.289
  F60721               JUNCTION      0.00    87.94     0  00:02           0       0.472       0.273
  F60947               JUNCTION      0.00    33.11     0  01:36           0      0.0102       8.625
  F62232               JUNCTION      0.00    95.65     0  00:00           0        1.54       0.092
  F68681               JUNCTION      0.00     1.46     0  08:00           0      0.0208       1.016
  F68683               JUNCTION      0.00     1.46     0  07:59           0      0.0206       0.174
  F68688               JUNCTION      0.00     1.46     0  07:59           0      0.0206       2.001
  F70445               JUNCTION      0.00   102.00     0  00:00           0        1.54       0.135
  F81433               JUNCTION      0.00    51.00     0  00:00           0       0.769       0.028
  F81433B              JUNCTION      0.00    51.00     0  00:00           0        0.77       0.028
  FKING                JUNCTION      0.00    33.25     0  00:00           0       0.246       1.267
  GA1-MAG              JUNCTION      0.00     4.41     0  07:34           0      0.0537       6.419
  GA1-MUR              JUNCTION      0.00     0.00     0  00:00           0           0       0.000 ltr
  GA3-A                JUNCTION      0.00     0.76     0  07:28           0      0.0112       2.469
  GA3-B                JUNCTION      0.00     0.58     0  00:16           0     0.00897       2.204
  OFALL-22SGRN         OUTFALL       0.00   197.72     0  07:02           0        2.79       0.000
  ADAMB14              STORAGE       0.00     1.27     0  07:51           0      0.0257       0.001
  BANKB16              STORAGE       0.00     0.33     0  08:00           0     0.00669       0.005
  CHERB19              STORAGE       0.00     2.14     0  07:44           0      0.0291       0.001
  COLSB12              STORAGE       0.00     5.87     0  07:58           0        30.1      -0.001
  COVEB37              STORAGE       0.00     0.41     0  07:53           0     0.00667       0.374
  FARNB20              STORAGE       0.00     4.57     0  08:00           0       0.058       0.001
  GA1                  STORAGE       3.95     3.95     0  07:00      0.0537      0.0541       0.721
  GA15                 STORAGE       0.36     0.36     0  00:00      0.0104      0.0104       1.547
  GA3                  STORAGE       0.70     0.73     0  00:06      0.0202      0.0202       0.111
  GA4                  STORAGE       0.50     0.50     0  00:00      0.0144      0.0144       3.199
  GA5                  STORAGE       0.99     0.99     0  07:00      0.0134      0.0134       2.733
  GA6A                 STORAGE       0.60     0.60     0  00:00      0.0173      0.0173       1.288
  KINGB11              STORAGE       0.00     1.52     0  00:34           0          30      -0.000
  MOORB18              STORAGE       0.00     0.00     0  00:00           0          30      -0.001
  NOTTB38              STORAGE       0.00     0.59     0  08:00           0      0.0121       0.003
  PURKB7               STORAGE       0.00    25.58     0  00:00           0          30      -0.000
  PURSB17              STORAGE       0.00     0.51     0  08:00           0      0.0094       0.035
  RENW                 STORAGE       0.00     1.76     0  03:51           0      0.0505       2.136
  REN_O                STORAGE       0.00     0.00     0  00:00           0           0       0.000 ltr
  ROSEB40              STORAGE       0.00     1.46     0  08:00           0      0.0232       0.001
  
  
  **********************
  Node Surcharge Summary
  **********************
  
  Surcharging occurs when water rises above the top of the highest conduit.
  ---------------------------------------------------------------------
                                               Max. Height   Min. Depth
                                   Hours       Above Crown    Below Rim
  Node                 Type      Surcharged         Meters       Meters
  ---------------------------------------------------------------------
  50136                JUNCTION        6.85          1.090        0.000
  56526                JUNCTION        0.01          0.127        1.838
  6375                 JUNCTION        7.92          0.737        0.000
  6543                 JUNCTION        0.97          0.285        0.459
  6545                 JUNCTION        7.99          1.455        0.000
  6547                 JUNCTION        7.97          0.997        0.241
  6548                 JUNCTION        7.94          0.499        0.842
  6549                 JUNCTION        7.91          0.412        1.086
  6577                 JUNCTION        5.61          0.365        0.965
  6721                 JUNCTION        7.96          1.150        0.000
  6722                 JUNCTION        7.96          1.274        0.000
  6824                 JUNCTION        8.00          1.650        0.000
  6956                 JUNCTION        7.94          0.545        0.000
  6957                 JUNCTION        7.95          0.675        0.000
  6958                 JUNCTION        7.96          1.038        0.000
  6959                 JUNCTION        7.92          0.423        0.000
  6960                 JUNCTION        7.91          0.366        0.000
  6961                 JUNCTION        7.90          0.780        0.000
  6962                 JUNCTION        7.89          0.716        0.000
  6963                 JUNCTION        7.91          0.450        0.000
  7131                 JUNCTION        7.88          0.455        0.985
  7162                 JUNCTION        7.72          0.524        0.926
  7163                 JUNCTION        7.81          1.276        0.014
  7164                 JUNCTION        7.65          0.097        0.683
  7165                 JUNCTION        7.98          1.872        0.408
  7166                 JUNCTION        7.92          0.574        0.966
  7168                 JUNCTION        7.99          2.520        0.000
  7168A                JUNCTION        8.00          2.440        0.000
  7169                 JUNCTION        7.66          0.420        0.790
  7631                 JUNCTION        7.99          1.895        0.000
  7670                 JUNCTION        7.89          0.550        0.836
  7684                 JUNCTION        7.62          0.225        0.975
[...]
  80164                   1.00   0.00  0.00  0.00  0.00  0.00  0.00  1.00  0.00  0.00
  80165                   1.00   0.00  0.00  0.00  0.99  0.01  0.00  0.00  0.99  0.00
  80167                   1.00   0.00  0.00  0.00  0.99  0.01  0.00  0.00  0.98  0.00
  81438R                  1.00   0.00  0.00  0.00  1.00  0.00  0.00  0.00  0.00  0.00
  9043R                   1.00   0.00  0.00  0.00  0.00  0.00  0.00  1.00  0.00  0.00
  9044R                   1.00   0.00  0.00  0.00  1.00  0.00  0.00  0.00  0.92  0.00
  9045                    1.00   0.00  0.00  0.00  0.00  0.00  0.00  1.00  0.00  0.00
  9046                    1.00   0.00  0.00  0.00  0.00  0.00  0.00  1.00  0.00  0.00
  9047                    1.00   0.00  0.00  0.00  1.00  0.00  0.00  0.00  0.04  0.00
  9048                    1.00   0.00  0.00  0.00  1.00  0.00  0.00  0.00  0.99  0.00
  9049                    1.00   0.00  0.01  0.00  0.99  0.00  0.00  0.00  0.96  0.00
  9050                    1.00   0.00  0.00  0.00  0.98  0.02  0.00  0.00  0.96  0.00
  9163                    1.00   0.00  0.00  0.00  0.00  0.00  0.00  1.00  0.00  0.00
  9164                    1.00   0.00  0.00  0.00  0.00  0.00  0.00  1.00  0.00  0.00
  9165                    1.00   0.00  0.00  0.00  0.00  0.00  0.00  1.00  0.00  0.00
  9173                    1.00   0.09  0.00  0.00  0.00  0.00  0.00  0.91  0.00  0.00
  9175                    1.00   0.00  0.00  0.00  0.00  0.00  0.00  1.00  0.00  0.00
  9176R                   1.00   0.00  0.00  0.00  0.88  0.12  0.00  0.00  0.83  0.00
  9180OCOVEN              1.00   0.01  0.00  0.00  0.00  0.00  0.00  0.99  0.00  0.00
  9181                    1.00   0.00  0.00  0.00  0.00  0.00  0.00  1.00  0.00  0.00
  9182                    1.00   0.00  0.00  0.00  1.00  0.00  0.00  0.00  0.98  0.00
  9184                    1.00   0.00  0.00  0.00  0.00  0.00  0.00  1.00  0.00  0.00
  9185                    1.00   0.00  0.00  0.00  0.00  0.00  0.00  1.00  0.00  0.00
  9186                    1.00   0.00  0.00  0.00  0.00  0.00  0.00  1.00  0.00  0.00
  9228                    1.00   0.00  0.00  0.00  0.99  0.01  0.00  0.00  0.97  0.00
  9229                    1.00   0.00  0.00  0.00  1.00  0.00  0.00  0.00  0.00  0.00
  9278TBANK               1.00   0.00  0.00  0.00  0.00  0.00  0.00  1.00  0.00  0.00
  9279                    1.00   0.00  0.00  0.00  0.90  0.00  0.00  0.10  0.00  0.00
  9280                    1.00   0.00  0.00  0.00  0.00  0.00  0.00  1.00  0.00  0.00
  9388R                   1.00   0.01  0.00  0.00  0.00  0.00  0.00  0.99  0.00  0.00
  9391                    1.00   0.00  0.00  0.00  0.10  0.00  0.00  0.89  0.09  0.00
  9392OF                  1.00   1.00  0.00  0.00  0.00  0.00  0.00  0.00  0.00  0.00
  9393                    1.00   0.00  0.00  0.00  0.98  0.00  0.00  0.02  0.98  0.00
  9394                    1.00   0.02  0.00  0.00  0.60  0.01  0.00  0.36  0.53  0.00
  9395                    1.00   0.00  0.00  0.00  0.00  0.00  0.00  1.00  0.00  0.00
  9396                    1.00   0.00  0.00  0.00  0.00  0.00  0.00  1.00  0.00  0.00
  9397                    1.00   0.00  0.00  0.00  0.00  0.00  0.00  1.00  0.00  0.00
  9418                    1.00   0.00  0.00  0.00  1.00  0.00  0.00  0.00  0.00  0.00
  9419                    1.00   0.00  0.00  0.00  0.99  0.00  0.00  0.01  0.99  0.00
  9420R                   1.00   0.00  0.00  0.00  1.00  0.00  0.00  0.00  0.00  0.00
  9422R                   1.00   0.00  0.00  0.00  1.00  0.00  0.00  0.00  0.00  0.00
  9423                    1.00   0.00  0.00  0.00  0.99  0.00  0.00  0.00  0.00  0.00
  9424                    1.00   0.00  0.00  0.00  0.99  0.00  0.00  0.01  0.00  0.00
  9425                    1.00   0.00  0.00  0.00  1.00  0.00  0.00  0.00  0.37  0.00
  9426                    1.00   0.00  0.00  0.00  0.00  0.00  0.00  1.00  0.00  0.00
  9427                    1.00   0.00  0.00  0.00  1.00  0.00  0.00  0.00  0.95  0.00
  9431                    1.00   0.00  0.00  0.00  1.00  0.00  0.00  0.00  0.13  0.00
  9452                    1.00   0.00  0.00  0.00  0.99  0.00  0.00  0.01  0.00  0.00
  9453                    1.00   0.00  0.00  0.00  1.00  0.00  0.00  0.00  0.99  0.00
  9454                    1.00   0.00  0.00  0.00  0.00  0.00  0.00  1.00  0.00  0.00
  F12NELS_KING            1.00   0.00  0.00  0.00  1.00  0.00  0.00  0.00  0.00  0.00
  F13000R                 1.00   0.00  0.00  0.00  1.00  0.00  0.00  0.00  0.00  0.00
  F13001R                 1.00   0.00  0.00  0.00  0.99  0.00  0.00  0.00  0.00  0.00
  F13001RVB               1.00   0.00  0.00  0.00  1.00  0.00  0.00  0.00  0.00  0.00
  F13011OPURS             1.00   0.00  0.13  0.00  0.83  0.03  0.00  0.00  0.79  0.00
  F14                     1.00   0.00  0.00  0.00  0.99  0.00  0.00  0.00  0.00  0.00
  F16OMOOR                1.00   0.00  0.00  0.00  1.00  0.00  0.00  0.00  0.00  0.00
  F18OKING-NU             1.00   0.00  0.00  0.00  1.00  0.00  0.00  0.00  0.00  0.00
  F50219                  1.00   0.24  0.00  0.00  0.76  0.00  0.00  0.00  0.70  0.00
  F50220                  1.00   0.24  0.00  0.00  0.76  0.01  0.00  0.00  0.70  0.00
  F50221                  1.00   0.24  0.00  0.00  0.75  0.01  0.00  0.00  0.70  0.00
  F50222                  1.00   0.24  0.00  0.00  0.67  0.09  0.00  0.00  0.00  0.00
  F50223                  1.00   0.00  0.26  0.00  0.71  0.03  0.00  0.00  0.70  0.00
  F56423                  1.00   0.00  0.00  0.00  1.00  0.00  0.00  0.00  0.00  0.00
  F56732                  1.00   0.12  0.04  0.00  0.82  0.00  0.00  0.02  0.67  0.00
  F56733                  1.00   0.12  0.00  0.00  0.82  0.00  0.00  0.06  0.00  0.00
  F60116                  3.05   0.08  0.01  0.00  0.92  0.00  0.00  0.00  0.00  0.00
  F60317                  2.89   0.17  0.00  0.00  0.83  0.00  0.00  0.00  0.00  0.00
  F60318                  1.16   0.17  0.00  0.00  0.83  0.00  0.00  0.00  0.00  0.00
  F60319                  1.00   0.17  0.00  0.00  0.83  0.00  0.00  0.00  0.00  0.00
  F60321                  1.00   0.17  0.00  0.00  0.83  0.00  0.00  0.00  0.00  0.00
  F60324                  1.00   0.47  0.00  0.00  0.52  0.00  0.00  0.00  0.00  0.00
  F60710                  1.00   0.47  0.00  0.00  0.52  0.00  0.00  0.00  0.00  0.00
  F60710B                 1.00   0.48  0.14  0.00  0.38  0.00  0.00  0.00  0.00  0.00
  F60713                  1.00   0.47  0.00  0.00  0.52  0.00  0.00  0.01  0.14  0.00
  F60713A                 1.00   0.47  0.00  0.00  0.52  0.00  0.00  0.01  0.00  0.00
  F60713B                 1.00   0.47  0.00  0.00  0.52  0.00  0.00  0.00  0.00  0.00
  F60715                  1.00   0.32  0.15  0.00  0.52  0.00  0.01  0.00  0.02  0.00
  F60716                  1.00   0.32  0.00  0.00  0.68  0.00  0.00  0.00  0.00  0.00
  F60717                  1.00   0.17  0.00  0.00  0.83  0.00  0.00  0.00  0.00  0.00
  F60717B                 1.00   0.17  0.15  0.00  0.68  0.00  0.00  0.00  0.00  0.00
  F60722                  3.93   0.00  0.00  0.00  1.00  0.00  0.00  0.00  0.00  0.00
  F60723                  1.00   0.00  0.00  0.00  0.99  0.00  0.00  0.00  0.00  0.00
  F60724                  1.00   0.00  0.00  0.00  0.03  0.97  0.00  0.00  0.01  0.00
  F607250COLS             1.00   0.00  0.00  0.00  0.99  0.00  0.00  0.01  0.00  0.00
  F60726OPURN             1.00   0.01  0.00  0.00  0.99  0.00  0.00  0.00  0.00  0.00
  F60948                  2.20   0.16  0.63  0.00  0.21  0.00  0.00  0.00  0.77  0.00
  F68691                  1.00   0.14  0.01  0.00  0.86  0.00  0.00  0.00  0.00  0.00
  F68693                  1.00   0.14  0.00  0.00  0.85  0.01  0.00  0.00  0.81  0.00
  F68859OROSE             1.00   0.00  0.14  0.00  0.86  0.00  0.00  0.00  0.82  0.00
  F81430                  1.00   0.00  0.00  0.00  1.00  0.00  0.00  0.00  0.00  0.00
  F81431                  1.00   0.00  0.00  0.00  1.00  0.00  0.00  0.00  0.00  0.00
  F81434                  1.00   0.00  0.00  0.00  1.00  0.00  0.00  0.00  0.00  0.00
  F81434B                 1.00   0.00  0.00  0.00  1.00  0.00  0.00  0.00  0.00  0.00
  F9041OADAM              1.00   0.08  0.02  0.00  0.00  0.00  0.90  0.00  0.00  0.00
  F9174OBANK              1.00   0.18  0.00  0.00  0.00  0.00  0.00  0.82  0.00  0.00
  F9389                   1.00   0.12  0.02  0.00  0.00  0.00  0.86  0.00  0.00  0.00
  F9390                   1.00   0.12  0.01  0.00  0.88  0.00  0.00  0.00  0.00  0.00
  FB20_CMPLT_RM           1.00   0.00  0.09  0.00  0.89  0.01  0.00  0.00  0.00  0.00
  FKRISER                 2.28   0.00  0.00  0.00  1.00  0.00  0.00  0.00  0.00  0.00
  GA3-B                   1.00   0.00  0.00  0.00  0.97  0.03  0.00  0.00  0.97  0.00
  GA6A                    1.00   0.00  0.00  0.00  0.94  0.06  0.00  0.00  0.94  0.00
  RENGA-NU                1.00   0.00  0.01  0.00  0.99  0.00  0.00  0.00  0.99  0.00
  XW2RENGM                1.21   0.00  1.00  0.00  0.00  0.00  0.00  0.00  0.00  0.00
  
  
  *************************
  Conduit Surcharge Summary
  *************************
  
  ----------------------------------------------------------------------------
                                                           Hours        Hours 
                         --------- Hours Full --------   Above Full   Capacity
  Conduit                Both Ends  Upstream  Dnstream   Normal Flow   Limited
  ----------------------------------------------------------------------------
  11790                       7.96      7.96      7.96      0.01         0.01
  11791                       7.97      7.97      7.99      0.02         0.01
  12057                       7.94      7.94      7.95      0.03         0.01
  12058                       7.95      7.95      7.96      7.95         0.01
  12059                       7.97      7.97      7.99      7.99         0.01
  12060                       7.92      7.92      7.94      0.03         0.01
  12061                       7.91      7.91      7.92      0.01         0.01
  12062                       7.90      7.90      7.92      0.01         0.01
  12063                       7.89      7.89      7.91      0.01         0.01
  12064TMOOR                  7.91      7.91      7.91      0.01         0.01
  12251                       7.88      7.88      7.92      0.01         0.01
  12282                       0.01      0.01      7.71      0.01         0.01
  12283                       7.73      7.73      7.84      0.01         0.01
  12284                       7.81      7.81      7.92      0.01         0.01
  12285                       7.66      7.66      7.88      0.01         0.01
  12286                       7.98      7.98      7.99      0.12         0.01
  12287                       7.97      7.97      7.98      0.01         0.01
  12289                       7.99      7.99      8.00      0.12         0.01
  12289SPLIT                  8.00      8.00      8.00      0.33         0.01
  12292                       7.67      7.67      7.72      0.01         0.01
  12293                       0.09      0.09      7.65      0.01         0.01
  12801                       7.99      7.99      8.00      8.00         0.01
  12885                       7.89      7.89      7.94      0.01         0.01
  12886                       0.01      0.01      7.89      0.01         0.01
  12900                       7.64      7.64      7.81      0.01         0.01
  12901                       7.60      7.60      7.64      0.01         0.01
  12912                       0.01      0.01      7.62      0.01         0.01
  12913                       0.01      0.01      7.66      0.01         0.01
  13002R                      8.00      8.00      8.00      0.01         0.01
  13003R                      0.01      0.01      8.00      0.01         0.01
  13115                       7.85      7.85      7.93      0.01         0.01
  13116                       7.93      7.93      7.98      0.03         0.01
  13122                       7.95      7.95      7.98      0.02         0.01
  13123                       0.02      0.02      7.95      0.01         0.01
  13124                       0.01      0.01      0.02      0.01         0.01
  13408                       7.71      7.71      7.76      0.01         0.01
  13409                       7.78      7.78      7.85      0.01         0.01
  40487                       0.53      0.53      7.05      0.01         0.01
  50144                       6.85      6.85      7.99      0.01         0.01
  50209                       0.01      0.01      0.01      0.01         0.01
  50722TPURS                  0.01      0.01      6.61      0.01         0.01
  56SGRN                      0.01      0.01      0.98      0.01         0.01
  60007                       0.01      0.01      0.01      0.01         0.01
  60374                       6.73      6.73      6.80      0.01         0.01
  81438R                      8.00      8.00      8.00      0.01         0.01
  9229                        7.92      7.92      7.97      0.01         0.01
  9418                        2.66      2.66      7.98      0.01         0.01
  9419                        0.01      0.01      0.97      0.01         0.01
  9420R                       7.99      7.99      8.00      0.03         0.01
  9422R                       7.97      7.97      7.99      0.01         0.01
  9423                        7.94      7.94      7.95      0.07         0.01
  9424                        7.91      7.91      7.95      0.01         0.01
  9425                        0.01      0.01      7.91      0.01         0.01
  9452                        5.60      5.60      7.91      0.01         0.01
  9453                        0.01      0.01      5.60      0.01         0.01
  F12NELS_KING                7.96      7.97      7.96      7.97         0.01
  F13000R                     7.99      7.99      7.99      0.02         0.01
  F13001R                     7.97      7.97      7.97      7.97         0.01
  F13001RVB                   7.99      7.99      7.99      0.03         0.01
  F13011OPURS                 0.01      0.15      0.01      0.16         0.01
  F14                         7.95      7.95      7.97      7.96         0.01
  F16OMOOR                    7.96      7.96      8.00      0.01         0.01
  F18OKING-NU                 7.96      7.96      7.99      7.97         0.01
  F50219                      0.10      0.11      0.12      0.02         0.09
  F50220                      0.10      0.12      0.12      0.10         0.07
  F50221                      0.08      0.12      0.12      0.10         0.08
  F50222                      0.01      0.12      0.01      0.08         0.01
  F56423                      7.99      7.99      7.99      7.99         7.98
  F56732                      0.01      0.02      0.01      0.07         0.01
  F60116                      0.01      0.01      7.16      0.01         0.01
  F60317                      6.31      6.31      6.31      0.01         0.01
  F60318                      6.31      6.31      6.31      0.18         0.01
  F60319                      6.31      6.31      6.31      0.27         0.27
  F60321                      6.31      6.31      6.31      0.20         0.01
  F60324                      3.86      3.86      3.86      0.30         0.39
  F60710                      2.75      2.75      3.86      0.01         0.01
  F60710B                     2.74      2.74      2.75      0.01         0.01
  F60713                      2.74      2.74      3.72      0.08         0.10
  F60713A                     3.72      3.72      3.85      0.01         0.05
  F60713B                     3.85      3.85      3.86      0.01         0.01
  F60715                      2.74      2.74      3.92      0.17         0.01
  F60716                      3.92      3.92      5.08      0.20         0.01
  F60717                      5.11      5.11      6.31      0.01         0.01
  F60717B                     5.08      5.08      5.11      0.20         0.01
  F60722                      7.96      7.96      7.96      0.01         0.01
  F60723                      7.91      7.91      7.92      7.90         0.01
  F60724                      0.01      0.01      7.91      7.91         0.01
  F607250COLS                 7.98      7.98      7.98      7.98         7.98
  F60726OPURN                 7.96      7.96      7.96      7.96         7.96
  F68691                      0.01      0.01      6.53      0.01         0.01
  F68859OROSE                 0.01      0.01      6.42      0.01         0.01
  F81430                      7.99      7.99      7.99      7.99         7.99
  F81431                      7.99      7.99      7.99      7.99         7.99
  F81434                      7.99      7.99      8.00      0.01         0.01
  F81434B                     7.99      7.99      8.00      0.01         0.01
  F9390                       0.01      0.01      6.57      0.01         0.01
  FB20_CMPLT_RM               0.01      0.75      0.01      0.52         0.01
  FKRISER                     7.97      7.97      8.00      0.01         0.01
  
  
  ***************
  Pumping Summary
  ***************
  
  ---------------------------------------------------------------------------------------------------------
                                                  Min       Avg       Max     Total     Power    % Time Off
                        Percent   Number of      Flow      Flow      Flow    Volume     Usage    Pump Curve
  Pump                 Utilized   Start-Ups       LPS       LPS       LPS  10^6 ltr     Kw-hr    Low   High
  ---------------------------------------------------------------------------------------------------------
  ADAMR                   90.36           1      0.00      0.96      1.27     0.025      0.14    0.0    0.0
  BANK                     1.32           7      0.00     16.60     18.80     0.006      0.03    0.0    0.0
  CHERR                   86.55           1      0.00      1.12      2.14     0.027      0.17    0.0    0.0
  COLS                   100.00           1      0.00     26.70     51.00     0.769     22.14    0.0    0.1
  COLSB                  100.00           1      0.00     26.74     51.00     0.770     22.15    0.0    0.1
  COVE                     1.33           4      0.00     14.42     31.26     0.005      0.11    0.0    0.0
  COVEB                    0.00           0      0.00      0.00      0.00     0.000      0.00    0.0    0.0
  FARNR                   88.52           1      0.00      2.19      4.57     0.055      0.45    0.0    0.0
  KINGBR                 100.00           1      0.00      4.29     16.20     0.123      4.03    0.0    0.3
  KINGR                  100.00           1      0.00      4.29     16.20     0.123      4.03    0.0    0.3
  MOORBR                 100.00           1      0.00      7.94     16.20     0.229      5.51    0.0    0.6
  MOORR                  100.00           1      0.00      7.94     16.20     0.229      5.51    0.0    0.6
  NOTT                     1.12           6      0.00     32.80     34.84     0.011      0.10    0.0    0.0
  NOTTB                    0.00           0      0.00      0.00      0.00     0.000      0.00    0.0    0.0
  PURKNBR                100.00           1      0.00      8.48     74.63     0.243     10.20    0.0    0.2
  PURKNR                 100.00           1      0.00      8.63     74.63     0.247     10.30    0.0    0.4
  PURS                     2.15          10      0.00     14.61     20.00     0.009      0.08    0.0   11.2
  RENW                     2.30           6      0.00     66.26     73.00     0.044      1.92    0.0   54.5
  RENWB                    0.00           0      0.00      0.00      0.00     0.000      0.00    0.0    0.0
  ROSER                   82.55           1      0.00      0.89      1.46     0.021      0.12    0.0    0.0
  

  Analysis begun on:  Fri Nov 29 12:13:35 2019
  Analysis ended on:  Fri Nov 29 12:13:41 2019
  Total elapsed time: 00:00:06