
  EPA STORM WATER MANAGEMENT MODEL - VERSION 5.1 (Build 5.1.013)
  --------------------------------------------------------------

  
  **********************           Volume        Volume
  Rainfall Dependent I/I        hectare-m      10^6 ltr
  **********************        ---------     ---------
  Sewershed Rainfall ......         0.000         0.000
  RDII Produced ...........         0.000         0.000
  RDII Ratio ..............         0.000
  
  
  *********************************************************
  NOTE: The summary statistics displayed in this report are
  based on results found at every computational time step,  
  not just on results from each reporting time step.
  *********************************************************
  
  ****************
  Analysis Options
  ****************
  Flow Units ............... LPS
  Process Models:
    Rainfall/Runoff ........ YES
    RDII ................... YES
    Snowmelt ............... NO
    Groundwater ............ NO
    Flow Routing ........... YES
    Ponding Allowed ........ YES
    Water Quality .......... NO
  Flow Routing Method ...... DYNWAVE
  Surcharge Method ......... EXTRAN
  Starting Date ............ 08/22/2008 00:00:00
  Ending Date .............. 08/22/2008 08:00:00
  Antecedent Dry Days ...... 5.0
  Report Time Step ......... 00:01:00
  Routing Time Step ........ 10.00 sec
  Variable Time Step ....... YES
  Maximum Trials ........... 8
  Number of Threads ........ 1
  Head Tolerance ........... 0.000100 m
  
  
  *********************
  Control Actions Taken
  *********************

  
  **************************        Volume        Volume
  Flow Routing Continuity        hectare-m      10^6 ltr
  **************************     ---------     ---------
  Dry Weather Inflow .......         0.000         0.000
  Wet Weather Inflow .......         0.000         0.000
  Groundwater Inflow .......         0.000         0.000
  RDII Inflow ..............         0.000         0.000
  External Inflow ..........         0.000         0.000
  External Outflow .........         0.000         0.000
  Flooding Loss ............         0.000         0.000
  Evaporation Loss .........         0.000         0.000
  Exfiltration Loss ........         0.000         0.000
  Initial Stored Volume ....        11.999       119.989
  Final Stored Volume ......        11.999       119.989
  Continuity Error (%) .....         0.000
  
  
  ***************************
  Time-Step Critical Elements
  ***************************
  None
  
  
  ********************************
  Highest Flow Instability Indexes
  ********************************
  All links are stable.
  
  
  ******************
  Node Depth Summary
  ******************
  
  ---------------------------------------------------------------------------------
                                 Average  Maximum  Maximum  Time of Max    Reported
                                   Depth    Depth      HGL   Occurrence   Max Depth
  Node                 Type       Meters   Meters   Meters  days hr:min      Meters
  ---------------------------------------------------------------------------------
  1138                 JUNCTION  -nan(ind)     0.00    19.30     0  00:00        0.00
  1182                 JUNCTION  -nan(ind)     0.00    15.91     0  00:00        0.00
  1242                 JUNCTION  -nan(ind)     0.00    17.89     0  00:00        0.00
  28749                JUNCTION  -nan(ind)     0.00    20.15     0  00:00        0.00
  28750                JUNCTION  -nan(ind)     0.00    19.75     0  00:00        0.00
  32870                JUNCTION  -nan(ind)     0.00    19.35     0  00:00        0.00
  33740                JUNCTION  -nan(ind)     0.00    18.51     0  00:00        0.00
  33741                JUNCTION  -nan(ind)     0.00    19.33     0  00:00        0.00
  40459                JUNCTION  -nan(ind)     0.00    18.82     0  00:00        0.00
  40460                JUNCTION  -nan(ind)     0.00    18.32     0  00:00        0.00
  40461                JUNCTION  -nan(ind)     0.00    17.39     0  00:00        0.00
  40462                JUNCTION  -nan(ind)     0.00    17.27     0  00:00        0.00
  40675                JUNCTION  -nan(ind)     0.00    17.93     0  00:00        0.00
  40698                JUNCTION  -nan(ind)     0.00    18.38     0  00:00        0.00
  41319                JUNCTION  -nan(ind)     0.00    18.61     0  00:00        0.00
  41320                JUNCTION  -nan(ind)     0.00    17.71     0  00:00        0.00
  41321                JUNCTION  -nan(ind)     0.00    17.90     0  00:00        0.00
  41325                JUNCTION  -nan(ind)     0.00    17.80     0  00:00        0.00
  43699                JUNCTION  -nan(ind)     0.00    18.24     0  00:00        0.00
  43700                JUNCTION  -nan(ind)     0.00    18.01     0  00:00        0.00
  43701                JUNCTION  -nan(ind)     0.00    18.38     0  00:00        0.00
  45877                JUNCTION  -nan(ind)     0.00    16.69     0  00:00        0.00
  48981                JUNCTION  -nan(ind)     0.00    19.62     0  00:00        0.00
  48982                JUNCTION  -nan(ind)     0.00    18.35     0  00:00        0.00
  48983                JUNCTION  -nan(ind)     0.00    18.10     0  00:00        0.00
  48984                JUNCTION  -nan(ind)     0.00    18.53     0  00:00        0.00
  48985                JUNCTION  -nan(ind)     0.00    18.84     0  00:00        0.00
  48986                JUNCTION  -nan(ind)     0.00    19.09     0  00:00        0.00
  49025                JUNCTION  -nan(ind)     0.00    19.27     0  00:00        0.00
  49026                JUNCTION  -nan(ind)     0.00    19.00     0  00:00        0.00
  49027                JUNCTION  -nan(ind)     0.00    17.85     0  00:00        0.00
  49102                JUNCTION  -nan(ind)     0.00    19.92     0  00:00        0.00
  49103                JUNCTION  -nan(ind)     0.00    19.67     0  00:00        0.00
  49104                JUNCTION  -nan(ind)     0.00    19.38     0  00:00        0.00
  50136                JUNCTION  -nan(ind)     0.00    17.62     0  00:00        0.00
  50148                JUNCTION  -nan(ind)     0.00    16.39     0  00:00        0.00
  50149                JUNCTION  -nan(ind)     0.00    17.63     0  00:00        0.00
  50150                JUNCTION  -nan(ind)     0.00    16.62     0  00:00        0.00
  50151                JUNCTION  -nan(ind)     0.00    17.14     0  00:00        0.00
  50152                JUNCTION  -nan(ind)     0.00    17.31     0  00:00        0.00
  50154                JUNCTION  -nan(ind)     0.00    17.26     0  00:00        0.00
  50155                JUNCTION  -nan(ind)     0.00    17.43     0  00:00        0.00
  50156                JUNCTION  -nan(ind)     0.00    17.74     0  00:00        0.00
  50157                JUNCTION  -nan(ind)     0.00    17.76     0  00:00        0.00
  50720                JUNCTION  -nan(ind)     0.00    16.54     0  00:00        0.00
  50721                JUNCTION  -nan(ind)     0.00    16.95     0  00:00        0.00
  50831                JUNCTION  -nan(ind)     0.00    17.95     0  00:00        0.00
  51200                JUNCTION  -nan(ind)     0.00    18.84     0  00:00        0.00
  51201                JUNCTION  -nan(ind)     0.00    17.90     0  00:00        0.00
  51514                JUNCTION  -nan(ind)     0.00    16.98     0  00:00        0.00
  51776                JUNCTION  -nan(ind)     0.00    20.57     0  00:00        0.00
  51777                JUNCTION  -nan(ind)     0.00    20.84     0  00:00        0.00
  51778                JUNCTION  -nan(ind)     0.00    20.68     0  00:00        0.00
  51779                JUNCTION  -nan(ind)     0.00    20.54     0  00:00        0.00
  51780                JUNCTION  -nan(ind)     0.00    20.32     0  00:00        0.00
  51781                JUNCTION  -nan(ind)     0.00    20.09     0  00:00        0.00
  51782                JUNCTION  -nan(ind)     0.00    20.02     0  00:00        0.00
  51783                JUNCTION  -nan(ind)     0.00    19.47     0  00:00        0.00
  53566                JUNCTION  -nan(ind)     0.00    19.91     0  00:00        0.00
  53568                JUNCTION  -nan(ind)     0.00    19.30     0  00:00        0.00
  54                   JUNCTION  -nan(ind)     0.00    19.40     0  00:00        0.00
  56523                JUNCTION  -nan(ind)     0.00    17.41     0  00:00        0.00
  56524                JUNCTION  -nan(ind)     0.00    17.30     0  00:00        0.00
  56525                JUNCTION  -nan(ind)     0.00    17.30     0  00:00        0.00
  56526                JUNCTION  -nan(ind)     0.00    17.16     0  00:00        0.00
  56565                JUNCTION  -nan(ind)     0.00    19.51     0  00:00        0.00
  56717                JUNCTION  -nan(ind)     0.00    20.49     0  00:00        0.00
  56718                JUNCTION  -nan(ind)     0.00    19.74     0  00:00        0.00
  56719                JUNCTION  -nan(ind)     0.00    20.29     0  00:00        0.00
  56720                JUNCTION  -nan(ind)     0.00    19.57     0  00:00        0.00
  56721                JUNCTION  -nan(ind)     0.00    19.31     0  00:00        0.00
  56722                JUNCTION  -nan(ind)     0.00    18.39     0  00:00        0.00
  56723                JUNCTION  -nan(ind)     0.00    18.28     0  00:00        0.00
  56724                JUNCTION  -nan(ind)     0.00    20.60     0  00:00        0.00
  56726                JUNCTION  -nan(ind)     0.00    19.80     0  00:00        0.00
  56727                JUNCTION  -nan(ind)     0.00    19.56     0  00:00        0.00
  57125                JUNCTION  -nan(ind)     0.00    21.30     0  00:00        0.00
  57126                JUNCTION  -nan(ind)     0.00    21.12     0  00:00        0.00
  58744                JUNCTION  -nan(ind)     0.00    18.30     0  00:00        0.00
  58745                JUNCTION  -nan(ind)     0.00    18.33     0  00:00        0.00
  58746                JUNCTION  -nan(ind)     0.00    18.42     0  00:00        0.00
  59036                JUNCTION  -nan(ind)     0.00    19.81     0  00:00        0.00
  59037                JUNCTION  -nan(ind)     0.00    20.18     0  00:00        0.00
  59038                JUNCTION  -nan(ind)     0.00    20.50     0  00:00        0.00
  59255                JUNCTION  -nan(ind)     0.00    20.35     0  00:00        0.00
  60045                JUNCTION  -nan(ind)     0.00    18.84     0  00:00        0.00
  60047                JUNCTION  -nan(ind)     0.00    22.69     0  00:00        0.00
  60064                JUNCTION  -nan(ind)     0.00    19.36     0  00:00        0.00
  60064A               JUNCTION  -nan(ind)     0.00    19.20     0  00:00        0.00
  60067                JUNCTION  -nan(ind)     0.00    19.45     0  00:00        0.00
  60068                JUNCTION  -nan(ind)     0.00    19.90     0  00:00        0.00
  60069                JUNCTION  -nan(ind)     0.00    20.50     0  00:00        0.00
  60070                JUNCTION  -nan(ind)     0.00    21.06     0  00:00        0.00
  60073                JUNCTION  -nan(ind)     0.00    24.36     0  00:00        0.00
  60075                JUNCTION  -nan(ind)     0.00    23.40     0  00:00        0.00
  60076                JUNCTION  -nan(ind)     0.00    23.83     0  00:00        0.00
  60247                JUNCTION  -nan(ind)     0.00    27.71     0  00:00        0.00
  60248                JUNCTION  -nan(ind)     0.00    27.10     0  00:00        0.00
  60249                JUNCTION  -nan(ind)     0.00    26.33     0  00:00        0.00
  60250                JUNCTION  -nan(ind)     0.00    25.31     0  00:00        0.00
  60255                JUNCTION  -nan(ind)     0.00    51.85     0  00:00        0.00
  60256                JUNCTION  -nan(ind)     0.00    49.60     0  00:00        0.00
  60257                JUNCTION  -nan(ind)     0.00    45.93     0  00:00        0.00
  60258                JUNCTION  -nan(ind)     0.00    43.67     0  00:00        0.00
  60259                JUNCTION  -nan(ind)     0.00    42.27     0  00:00        0.00
  60260                JUNCTION  -nan(ind)     0.00    41.76     0  00:00        0.00
  60261                JUNCTION  -nan(ind)     0.00    40.06     0  00:00        0.00
  60262                JUNCTION  -nan(ind)     0.00    39.35     0  00:00        0.00
  60263                JUNCTION  -nan(ind)     0.00    38.50     0  00:00        0.00
  60264                JUNCTION  -nan(ind)     0.00    38.36     0  00:00        0.00
  60265                JUNCTION  -nan(ind)     0.00    36.81     0  00:00        0.00
  60266                JUNCTION  -nan(ind)     0.00    36.65     0  00:00        0.00
  60267                JUNCTION  -nan(ind)     0.00    36.36     0  00:00        0.00
  60268                JUNCTION  -nan(ind)     0.00    36.16     0  00:00        0.00
  60269                JUNCTION  -nan(ind)     0.00    35.36     0  00:00        0.00
  60270                JUNCTION  -nan(ind)     0.00    34.47     0  00:00        0.00
  60271                JUNCTION  -nan(ind)     0.00    33.69     0  00:00        0.00
  60272                JUNCTION  -nan(ind)     0.00    33.09     0  00:00        0.00
  60273                JUNCTION  -nan(ind)     0.00    31.38     0  00:00        0.00
  60274                JUNCTION  -nan(ind)     0.00    31.11     0  00:00        0.00
  60275                JUNCTION  -nan(ind)     0.00    30.38     0  00:00        0.00
  60276                JUNCTION  -nan(ind)     0.00    29.88     0  00:00        0.00
  60277                JUNCTION  -nan(ind)     0.00    28.50     0  00:00        0.00
  60278                JUNCTION  -nan(ind)     0.00    27.79     0  00:00        0.00
  60314                JUNCTION  -nan(ind)     0.00    42.35     0  00:00        0.00
  6205                 JUNCTION  -nan(ind)     0.00    19.00     0  00:00        0.00
  6206                 JUNCTION  -nan(ind)     0.00    18.16     0  00:00        0.00
  6207                 JUNCTION  -nan(ind)     0.00    18.52     0  00:00        0.00
  6208                 JUNCTION  -nan(ind)     0.00    19.45     0  00:00        0.00
  6209                 JUNCTION  -nan(ind)     0.00    19.21     0  00:00        0.00
  6210                 JUNCTION  -nan(ind)     0.00    18.87     0  00:00        0.00
  6211                 JUNCTION  -nan(ind)     0.00    19.14     0  00:00        0.00
  6212                 JUNCTION  -nan(ind)     0.00    19.39     0  00:00        0.00
  6213                 JUNCTION  -nan(ind)     0.00    19.63     0  00:00        0.00
  6214                 JUNCTION  -nan(ind)     0.00    19.99     0  00:00        0.00
  6315                 JUNCTION  -nan(ind)     0.00    18.82     0  00:00        0.00
  6316                 JUNCTION  -nan(ind)     0.00    19.03     0  00:00        0.00
  6317                 JUNCTION  -nan(ind)     0.00    19.20     0  00:00        0.00
  6325                 JUNCTION  -nan(ind)     0.00    16.25     0  00:00        0.00
  6326                 JUNCTION  -nan(ind)     0.00    16.41     0  00:00        0.00
  6327                 JUNCTION  -nan(ind)     0.00    16.91     0  00:00        0.00
  6331                 JUNCTION  -nan(ind)     0.00    17.51     0  00:00        0.00
  6332                 JUNCTION  -nan(ind)     0.00    18.02     0  00:00        0.00
  6333                 JUNCTION  -nan(ind)     0.00    18.67     0  00:00        0.00
  6335                 JUNCTION  -nan(ind)     0.00    18.50     0  00:00        0.00
  6336                 JUNCTION  -nan(ind)     0.00    18.40     0  00:00        0.00
  6337                 JUNCTION  -nan(ind)     0.00    18.62     0  00:00        0.00
  6374                 JUNCTION  -nan(ind)     0.00    16.96     0  00:00        0.00
  6375                 JUNCTION  -nan(ind)     0.00    16.65     0  00:00        0.00
  6414                 JUNCTION  -nan(ind)     0.00    16.90     0  00:00        0.00
  6415                 JUNCTION  -nan(ind)     0.00    16.70     0  00:00        0.00
  6416                 JUNCTION  -nan(ind)     0.00    16.88     0  00:00        0.00
  6518                 JUNCTION  -nan(ind)     0.00    17.38     0  00:00        0.00
  6519                 JUNCTION  -nan(ind)     0.00    19.51     0  00:00        0.00
  6520                 JUNCTION  -nan(ind)     0.00    18.04     0  00:00        0.00
  6521                 JUNCTION  -nan(ind)     0.00    17.60     0  00:00        0.00
  6522                 JUNCTION  -nan(ind)     0.00    18.39     0  00:00        0.00
  6523                 JUNCTION  -nan(ind)     0.00    18.72     0  00:00        0.00
  6524                 JUNCTION  -nan(ind)     0.00    18.93     0  00:00        0.00
  6543                 JUNCTION  -nan(ind)     0.00    17.70     0  00:00        0.00
  6544                 JUNCTION  -nan(ind)     0.00    18.00     0  00:00        0.00
  6545                 JUNCTION  -nan(ind)     0.00    16.89     0  00:00        0.00
  6547                 JUNCTION  -nan(ind)     0.00    17.12     0  00:00        0.00
  6548                 JUNCTION  -nan(ind)     0.00    17.10     0  00:00        0.00
  6549                 JUNCTION  -nan(ind)     0.00    17.41     0  00:00        0.00
  6550                 JUNCTION  -nan(ind)     0.00    17.77     0  00:00        0.00
  6551                 JUNCTION  -nan(ind)     0.00    18.22     0  00:00        0.00
  6552                 JUNCTION  -nan(ind)     0.00    18.34     0  00:00        0.00
  6556                 JUNCTION  -nan(ind)     0.00    18.45     0  00:00        0.00
  6577                 JUNCTION  -nan(ind)     0.00    17.64     0  00:00        0.00
  6578                 JUNCTION  -nan(ind)     0.00    18.03     0  00:00        0.00
  6721                 JUNCTION  -nan(ind)     0.00    16.59     0  00:00        0.00
  6722                 JUNCTION  -nan(ind)     0.00    16.43     0  00:00        0.00
  6824                 JUNCTION  -nan(ind)     0.00    16.78     0  00:00        0.00
  68687                JUNCTION  -nan(ind)     0.00    18.04     0  00:00        0.00
  68702                JUNCTION  -nan(ind)     0.00    18.87     0  00:00        0.00
  68703                JUNCTION  -nan(ind)     0.00    18.51     0  00:00        0.00
  68704                JUNCTION  -nan(ind)     0.00    18.29     0  00:00        0.00
  68705                JUNCTION  -nan(ind)     0.00    18.77     0  00:00        0.00
  68710                JUNCTION  -nan(ind)     0.00    18.95     0  00:00        0.00
  68711                JUNCTION  -nan(ind)     0.00    19.21     0  00:00        0.00
  68712                JUNCTION  -nan(ind)     0.00    19.40     0  00:00        0.00
  6956                 JUNCTION  -nan(ind)     0.00    16.45     0  00:00        0.00
  6957                 JUNCTION  -nan(ind)     0.00    16.32     0  00:00        0.00
  6958                 JUNCTION  -nan(ind)     0.00    16.05     0  00:00        0.00
  6959                 JUNCTION  -nan(ind)     0.00    16.54     0  00:00        0.00
  6960                 JUNCTION  -nan(ind)     0.00    16.63     0  00:00        0.00
  6961                 JUNCTION  -nan(ind)     0.00    16.84     0  00:00        0.00
  6962                 JUNCTION  -nan(ind)     0.00    16.87     0  00:00        0.00
  6963                 JUNCTION  -nan(ind)     0.00    16.74     0  00:00        0.00
  7000                 JUNCTION  -nan(ind)     0.00    17.91     0  00:00        0.00
  7131                 JUNCTION  -nan(ind)     0.00    16.75     0  00:00        0.00
  7161                 JUNCTION  -nan(ind)     0.00    17.22     0  00:00        0.00
  7162                 JUNCTION  -nan(ind)     0.00    16.82     0  00:00        0.00
  7163                 JUNCTION  -nan(ind)     0.00    16.55     0  00:00        0.00
  7164                 JUNCTION  -nan(ind)     0.00    17.10     0  00:00        0.00
  7165                 JUNCTION  -nan(ind)     0.00    15.52     0  00:00        0.00
  7166                 JUNCTION  -nan(ind)     0.00    15.69     0  00:00        0.00
  7167                 JUNCTION  -nan(ind)     0.00    17.38     0  00:00        0.00
  7168                 JUNCTION  -nan(ind)     0.00    15.34     0  00:00        0.00
  7168A                JUNCTION  -nan(ind)     0.00    15.00     0  00:00        0.00
  7169                 JUNCTION  -nan(ind)     0.00    16.94     0  00:00        0.00
  7170                 JUNCTION  -nan(ind)     0.00    17.20     0  00:00        0.00
  7201                 JUNCTION  -nan(ind)     0.00    16.63     0  00:00        0.00
  7202                 JUNCTION  -nan(ind)     0.00    16.73     0  00:00        0.00
  7203                 JUNCTION  -nan(ind)     0.00    17.33     0  00:00        0.00
  7204                 JUNCTION  -nan(ind)     0.00    16.98     0  00:00        0.00
  7205                 JUNCTION  -nan(ind)     0.00    17.17     0  00:00        0.00
  7207                 JUNCTION  -nan(ind)     0.00    17.42     0  00:00        0.00
  7208                 JUNCTION  -nan(ind)     0.00    17.65     0  00:00        0.00
  7209                 JUNCTION  -nan(ind)     0.00    18.25     0  00:00        0.00
  7210                 JUNCTION  -nan(ind)     0.00    17.70     0  00:00        0.00
  7211                 JUNCTION  -nan(ind)     0.00    17.92     0  00:00        0.00
  7212                 JUNCTION  -nan(ind)     0.00    18.20     0  00:00        0.00
  7213                 JUNCTION  -nan(ind)     0.00    18.45     0  00:00        0.00
  7214                 JUNCTION  -nan(ind)     0.00    18.90     0  00:00        0.00
  7215                 JUNCTION  -nan(ind)     0.00    19.00     0  00:00        0.00
  7216                 JUNCTION  -nan(ind)     0.00    18.45     0  00:00        0.00
  7217                 JUNCTION  -nan(ind)     0.00    18.83     0  00:00        0.00
  7218                 JUNCTION  -nan(ind)     0.00    18.64     0  00:00        0.00
  7219                 JUNCTION  -nan(ind)     0.00    18.90     0  00:00        0.00
  7220                 JUNCTION  -nan(ind)     0.00    19.26     0  00:00        0.00
  7221                 JUNCTION  -nan(ind)     0.00    19.02     0  00:00        0.00
  7222                 JUNCTION  -nan(ind)     0.00    19.14     0  00:00        0.00
  72289                JUNCTION  -nan(ind)     0.00    20.11     0  00:00        0.00
  72290                JUNCTION  -nan(ind)     0.00    20.37     0  00:00        0.00
  72291                JUNCTION  -nan(ind)     0.00    18.60     0  00:00        0.00
  72374                JUNCTION  -nan(ind)     0.00    18.96     0  00:00        0.00
  7291                 JUNCTION  -nan(ind)     0.00    20.23     0  00:00        0.00
  7292                 JUNCTION  -nan(ind)     0.00    19.77     0  00:00        0.00
  74414                JUNCTION  -nan(ind)     0.00    19.88     0  00:00        0.00
  74425                JUNCTION  -nan(ind)     0.00    19.24     0  00:00        0.00
  74649                JUNCTION  -nan(ind)     0.00    19.61     0  00:00        0.00
  74724                JUNCTION  -nan(ind)     0.00    20.18     0  00:00        0.00
  74726                JUNCTION  -nan(ind)     0.00    19.19     0  00:00        0.00
  74727                JUNCTION  -nan(ind)     0.00    19.38     0  00:00        0.00
  74728                JUNCTION  -nan(ind)     0.00    19.57     0  00:00        0.00
  74729                JUNCTION  -nan(ind)     0.00    19.78     0  00:00        0.00
  74730                JUNCTION  -nan(ind)     0.00    20.01     0  00:00        0.00
  74731                JUNCTION  -nan(ind)     0.00    20.17     0  00:00        0.00
  74822                JUNCTION  -nan(ind)     0.00    20.44     0  00:00        0.00
  7483                 JUNCTION  -nan(ind)     0.00    18.76     0  00:00        0.00
  7484                 JUNCTION  -nan(ind)     0.00    19.06     0  00:00        0.00
  7485                 JUNCTION  -nan(ind)     0.00    18.90     0  00:00        0.00
  7486                 JUNCTION  -nan(ind)     0.00    18.58     0  00:00        0.00
  7487                 JUNCTION  -nan(ind)     0.00    18.00     0  00:00        0.00
  7488                 JUNCTION  -nan(ind)     0.00    18.84     0  00:00        0.00
  7489                 JUNCTION  -nan(ind)     0.00    19.11     0  00:00        0.00
  7490                 JUNCTION  -nan(ind)     0.00    19.20     0  00:00        0.00
  7491                 JUNCTION  -nan(ind)     0.00    19.26     0  00:00        0.00
  7492                 JUNCTION  -nan(ind)     0.00    19.37     0  00:00        0.00
  7600                 JUNCTION  -nan(ind)     0.00    18.20     0  00:00        0.00
  7601                 JUNCTION  -nan(ind)     0.00    18.35     0  00:00        0.00
  7602                 JUNCTION  -nan(ind)     0.00    18.66     0  00:00        0.00
  7603                 JUNCTION  -nan(ind)     0.00    18.75     0  00:00        0.00
  7604                 JUNCTION  -nan(ind)     0.00    18.86     0  00:00        0.00
  7605                 JUNCTION  -nan(ind)     0.00    19.07     0  00:00        0.00
  7606                 JUNCTION  -nan(ind)     0.00    19.07     0  00:00        0.00
  7607                 JUNCTION  -nan(ind)     0.00    19.30     0  00:00        0.00
  7608                 JUNCTION  -nan(ind)     0.00    17.56     0  00:00        0.00
  7609                 JUNCTION  -nan(ind)     0.00    17.93     0  00:00        0.00
  7631                 JUNCTION  -nan(ind)     0.00    15.84     0  00:00        0.00
  7648                 JUNCTION  -nan(ind)     0.00    17.95     0  00:00        0.00
  7670                 JUNCTION  -nan(ind)     0.00    17.55     0  00:00        0.00
  7671                 JUNCTION  -nan(ind)     0.00    17.90     0  00:00        0.00
  7683                 JUNCTION  -nan(ind)     0.00    17.58     0  00:00        0.00
  7684                 JUNCTION  -nan(ind)     0.00    17.02     0  00:00        0.00
  7685                 JUNCTION  -nan(ind)     0.00    17.15     0  00:00        0.00
  7696                 JUNCTION  -nan(ind)     0.00    17.30     0  00:00        0.00
  7697                 JUNCTION  -nan(ind)     0.00    17.45     0  00:00        0.00
  77150                JUNCTION  -nan(ind)     0.00    18.86     0  00:00        0.00
  77151                JUNCTION  -nan(ind)     0.00    19.17     0  00:00        0.00
  77152                JUNCTION  -nan(ind)     0.00    19.32     0  00:00        0.00
  7778                 JUNCTION  -nan(ind)     0.00    16.86     0  00:00        0.00
  7779                 JUNCTION  -nan(ind)     0.00    16.50     0  00:00        0.00
  7780                 JUNCTION  -nan(ind)     0.00    16.32     0  00:00        0.00
  7782                 JUNCTION  -nan(ind)     0.00    15.89     0  00:00        0.00
  7783                 JUNCTION  -nan(ind)     0.00    16.14     0  00:00        0.00
  7784                 JUNCTION  -nan(ind)     0.00    16.44     0  00:00        0.00
  7786                 JUNCTION  -nan(ind)     0.00    16.55     0  00:00        0.00
  7787                 JUNCTION  -nan(ind)     0.00    16.90     0  00:00        0.00
  7788                 JUNCTION  -nan(ind)     0.00    17.13     0  00:00        0.00
  7789                 JUNCTION  -nan(ind)     0.00    16.65     0  00:00        0.00
  7790                 JUNCTION  -nan(ind)     0.00    17.46     0  00:00        0.00
  7791                 JUNCTION  -nan(ind)     0.00    16.34     0  00:00        0.00
  7792                 JUNCTION  -nan(ind)     0.00    16.74     0  00:00        0.00
  7793                 JUNCTION  -nan(ind)     0.00    17.63     0  00:00        0.00
  78984                JUNCTION  -nan(ind)     0.00    18.80     0  00:00        0.00
  7911                 JUNCTION  -nan(ind)     0.00    16.28     0  00:00        0.00
  7912                 JUNCTION  -nan(ind)     0.00    15.92     0  00:00        0.00
  7913                 JUNCTION  -nan(ind)     0.00    20.25     0  00:00        0.00
  7917                 JUNCTION  -nan(ind)     0.00    17.25     0  00:00        0.00
  7918                 JUNCTION  -nan(ind)     0.00    17.76     0  00:00        0.00
  7919                 JUNCTION  -nan(ind)     0.00    17.86     0  00:00        0.00
  7921                 JUNCTION  -nan(ind)     0.00    17.76     0  00:00        0.00
  8008                 JUNCTION  -nan(ind)     0.00    17.45     0  00:00        0.00
  8009                 JUNCTION  -nan(ind)     0.00    17.25     0  00:00        0.00
  8010                 JUNCTION  -nan(ind)     0.00    19.64     0  00:00        0.00
  8011                 JUNCTION  -nan(ind)     0.00    19.88     0  00:00        0.00
  8012                 JUNCTION  -nan(ind)     0.00    19.46     0  00:00        0.00
  8013                 JUNCTION  -nan(ind)     0.00    19.54     0  00:00        0.00
  80162                JUNCTION  -nan(ind)     0.00    20.59     0  00:00        0.00
  80163                JUNCTION  -nan(ind)     0.00    21.15     0  00:00        0.00
  80166                JUNCTION  -nan(ind)     0.00    20.95     0  00:00        0.00
  8027                 JUNCTION  -nan(ind)     0.00    17.37     0  00:00        0.00
  8062                 JUNCTION  -nan(ind)     0.00    16.01     0  00:00        0.00
  8063                 JUNCTION  -nan(ind)     0.00    16.31     0  00:00        0.00
  8064                 JUNCTION  -nan(ind)     0.00    16.70     0  00:00        0.00
  8065                 JUNCTION  -nan(ind)     0.00    17.14     0  00:00        0.00
  8137                 JUNCTION  -nan(ind)     0.00    17.91     0  00:00        0.00
  8138                 JUNCTION  -nan(ind)     0.00    18.15     0  00:00        0.00
  8139                 JUNCTION  -nan(ind)     0.00    18.28     0  00:00        0.00
  8140                 JUNCTION  -nan(ind)     0.00    18.49     0  00:00        0.00
  8141                 JUNCTION  -nan(ind)     0.00    18.71     0  00:00        0.00
  8142                 JUNCTION  -nan(ind)     0.00    18.94     0  00:00        0.00
  8160                 JUNCTION  -nan(ind)     0.00    16.82     0  00:00        0.00
  8161                 JUNCTION  -nan(ind)     0.00    16.71     0  00:00        0.00
  F1028                JUNCTION  -nan(ind)     0.00    19.59     0  00:00        0.00
  F1140                JUNCTION  -nan(ind)     0.00    15.00     0  00:00        0.00
  F12                  JUNCTION  -nan(ind)     0.00    16.50     0  00:00        0.00
  F1284                JUNCTION  -nan(ind)     0.00    16.50     0  00:00        0.00
  F13001RR             JUNCTION  -nan(ind)     0.00    14.08     0  00:00        0.00
  F14                  JUNCTION  -nan(ind)     0.00    16.65     0  00:00        0.00
  F4014                JUNCTION  -nan(ind)     0.00    17.24     0  00:00        0.00
  F4021                JUNCTION  -nan(ind)     0.00    16.70     0  00:00        0.00
  F40455               JUNCTION  -nan(ind)     0.00    19.89     0  00:00        0.00
  F40487               JUNCTION  -nan(ind)     0.00    17.00     0  00:00        0.00
  F49209               JUNCTION  -nan(ind)     0.00    41.30     0  00:00        0.00
  F50215               JUNCTION  -nan(ind)     0.00    19.50     0  00:00        0.00
  F50216               JUNCTION  -nan(ind)     0.00    19.00     0  00:00        0.00
  F50217               JUNCTION  -nan(ind)     0.00    18.50     0  00:00        0.00
  F50218               JUNCTION  -nan(ind)     0.00    18.10     0  00:00        0.00
  F56422               JUNCTION  -nan(ind)     0.00    16.50     0  00:00        0.00
  F56513               JUNCTION  -nan(ind)     0.00    20.58     0  00:00        0.00
  F56725               JUNCTION  -nan(ind)     0.00    20.55     0  00:00        0.00
  F60115               JUNCTION  -nan(ind)     0.00    19.24     0  00:00        0.00
  F60134               JUNCTION  -nan(ind)     0.00    17.36     0  00:00        0.00
  F60237               JUNCTION  -nan(ind)     0.00    14.08     0  00:00        0.00
  F60237B              JUNCTION  -nan(ind)     0.00    14.08     0  00:00        0.00
  F60307               JUNCTION  -nan(ind)     0.00    44.46     0  00:00        0.00
  F60308               JUNCTION  -nan(ind)     0.00    44.48     0  00:00        0.00
  F60309               JUNCTION  -nan(ind)     0.00    44.58     0  00:00        0.00
  F60312               JUNCTION  -nan(ind)     0.00    49.60     0  00:00        0.00
  F60313               JUNCTION  -nan(ind)     0.00    47.87     0  00:00        0.00
  F60320               JUNCTION  -nan(ind)     0.00    44.69     0  00:00        0.00
  F60322               JUNCTION  -nan(ind)     0.00    47.19     0  00:00        0.00
  F60323               JUNCTION  -nan(ind)     0.00    47.19     0  00:00        0.00
  F60323B              JUNCTION  -nan(ind)     0.00    50.49     0  00:00        0.00
  F60348               JUNCTION  -nan(ind)     0.00    20.02     0  00:00        0.00
  F60373               JUNCTION  -nan(ind)     0.00    19.47     0  00:00        0.00
  F60444               JUNCTION  -nan(ind)     0.00    17.61     0  00:00        0.00
  F60476               JUNCTION  -nan(ind)     0.00    16.00     0  00:00        0.00
  F60712               JUNCTION  -nan(ind)     0.00    51.08     0  00:00        0.00
  F60712A              JUNCTION  -nan(ind)     0.00    50.37     0  00:00        0.00
  F60712B              JUNCTION  -nan(ind)     0.00    49.73     0  00:00        0.00
  F60714               JUNCTION  -nan(ind)     0.00    50.42     0  00:00        0.00
  F60718               JUNCTION  -nan(ind)     0.00    16.50     0  00:00        0.00
  F60719               JUNCTION  -nan(ind)     0.00    16.50     0  00:00        0.00
  F60720               JUNCTION  -nan(ind)     0.00    16.55     0  00:00        0.00
  F60721               JUNCTION  -nan(ind)     0.00    16.50     0  00:00        0.00
  F60947               JUNCTION  -nan(ind)     0.00    20.60     0  00:00        0.00
  F62232               JUNCTION  -nan(ind)     0.00    16.50     0  00:00        0.00
  F68681               JUNCTION  -nan(ind)     0.00    17.13     0  00:00        0.00
  F68683               JUNCTION  -nan(ind)     0.00    20.04     0  00:00        0.00
  F68688               JUNCTION  -nan(ind)     0.00    19.90     0  00:00        0.00
  F70445               JUNCTION  -nan(ind)     0.00    16.50     0  00:00        0.00
  F81433               JUNCTION  -nan(ind)     0.00    16.00     0  00:00        0.00
  F81433B              JUNCTION  -nan(ind)     0.00    16.00     0  00:00        0.00
  FKING                JUNCTION  -nan(ind)     0.00    16.00     0  00:00        0.00
  GA1-MAG              JUNCTION  -nan(ind)     0.00    22.00     0  00:00        0.00
  GA1-MUR              JUNCTION  -nan(ind)     0.00    22.00     0  00:00        0.00
  GA3-A                JUNCTION  -nan(ind)     0.00    22.00     0  00:00        0.00
  GA3-B                JUNCTION  -nan(ind)     0.00    22.00     0  00:00        0.00
  OFALL-22SGRN         OUTFALL   -nan(ind)     0.00    15.00     0  00:00        0.00
  ADAMB14              STORAGE   -nan(ind)     0.00    16.60     0  00:00        0.00
  BANKB16              STORAGE   -nan(ind)     0.00    15.60     0  00:00        0.00
  CHERB19              STORAGE   -nan(ind)     0.00    16.68     0  00:00        0.00
  COLSB12              STORAGE   -nan(ind)     0.00    14.90     0  00:00        0.00
  COVEB37              STORAGE   -nan(ind)     0.00    15.70     0  00:00        0.00
  FARNB20              STORAGE   -nan(ind)     0.00    16.08     0  00:00        0.00
  GA1                  STORAGE   -nan(ind)     0.00    22.00     0  00:00        0.00
  GA15                 STORAGE   -nan(ind)     0.00    42.38     0  00:00        0.00
  GA3                  STORAGE   -nan(ind)     0.00    22.00     0  00:00        0.00
  GA4                  STORAGE   -nan(ind)     0.00    22.00     0  00:00        0.00
  GA5                  STORAGE   -nan(ind)     0.00    22.00     0  00:00        0.00
  GA6A                 STORAGE   -nan(ind)     0.00    22.00     0  00:00        0.00
  KINGB11              STORAGE   -nan(ind)     0.00    14.35     0  00:00        0.00
  MOORB18              STORAGE   -nan(ind)     0.00    14.87     0  00:00        0.00
  NOTTB38              STORAGE   -nan(ind)     0.00    17.20     0  00:00        0.00
  PURKB7               STORAGE   -nan(ind)     0.00    13.33     0  00:00        0.00
  PURSB17              STORAGE   -nan(ind)     0.00    15.13     0  00:00        0.00
  RENW                 STORAGE   -nan(ind)     0.00    41.09     0  00:00        0.00
  REN_O                STORAGE   -nan(ind)     0.00    41.80     0  00:00        0.00
  ROSEB40              STORAGE   -nan(ind)     0.00    16.98     0  00:00        0.00
  
  
  *******************
  Node Inflow Summary
  *******************
  
  -------------------------------------------------------------------------------------------------
                                  Maximum  Maximum                  Lateral       Total        Flow
                                  Lateral    Total  Time of Max      Inflow      Inflow     Balance
                                   Inflow   Inflow   Occurrence      Volume      Volume       Error
  Node                 Type           LPS      LPS  days hr:min    10^6 ltr    10^6 ltr     Percent
  -------------------------------------------------------------------------------------------------
  1138                 JUNCTION      0.00     0.00     0  00:00           0           0       0.000 ltr
  1182                 JUNCTION      0.00     0.00     0  00:00           0           0       0.000 ltr
  1242                 JUNCTION      0.00     0.00     0  00:00           0           0       0.000 ltr
  28749                JUNCTION      0.00     0.00     0  00:00           0           0       0.000 ltr
  28750                JUNCTION      0.00     0.00     0  00:00           0           0       0.000 ltr
  32870                JUNCTION      0.00     0.00     0  00:00           0           0       0.000 ltr
  33740                JUNCTION      0.00     0.00     0  00:00           0           0       0.000 ltr
  33741                JUNCTION      0.00     0.00     0  00:00           0           0       0.000 ltr
  40459                JUNCTION      0.00     0.00     0  00:00           0           0       0.000 ltr
  40460                JUNCTION      0.00     0.00     0  00:00           0           0       0.000 ltr
  40461                JUNCTION      0.00     0.00     0  00:00           0           0       0.000 ltr
  40462                JUNCTION      0.00     0.00     0  00:00           0           0       0.000 ltr
  40675                JUNCTION      0.00     0.00     0  00:00           0           0       0.000 ltr
  40698                JUNCTION      0.00     0.00     0  00:00           0           0       0.000 ltr
  41319                JUNCTION      0.00     0.00     0  00:00           0           0       0.000 ltr
  41320                JUNCTION      0.00     0.00     0  00:00           0           0       0.000 ltr
  41321                JUNCTION      0.00     0.00     0  00:00           0           0       0.000 ltr
  41325                JUNCTION      0.00     0.00     0  00:00           0           0       0.000 ltr
  43699                JUNCTION      0.00     0.00     0  00:00           0           0       0.000 ltr
  43700                JUNCTION      0.00     0.00     0  00:00           0           0       0.000 ltr
  43701                JUNCTION      0.00     0.00     0  00:00           0           0       0.000 ltr
  45877                JUNCTION      0.00     0.00     0  00:00           0           0       0.000 ltr
  48981                JUNCTION      0.00     0.00     0  00:00           0           0       0.000 ltr
  48982                JUNCTION      0.00     0.00     0  00:00           0           0       0.000 ltr
  48983                JUNCTION      0.00     0.00     0  00:00           0           0       0.000 ltr
  48984                JUNCTION      0.00     0.00     0  00:00           0           0       0.000 ltr
  48985                JUNCTION      0.00     0.00     0  00:00           0           0       0.000 ltr
  48986                JUNCTION      0.00     0.00     0  00:00           0           0       0.000 ltr
  49025                JUNCTION      0.00     0.00     0  00:00           0           0       0.000 ltr
  49026                JUNCTION      0.00     0.00     0  00:00           0           0       0.000 ltr
  49027                JUNCTION      0.00     0.00     0  00:00           0           0       0.000 ltr
  49102                JUNCTION      0.00     0.00     0  00:00           0           0       0.000 ltr
  49103                JUNCTION      0.00     0.00     0  00:00           0           0       0.000 ltr
  49104                JUNCTION      0.00     0.00     0  00:00           0           0       0.000 ltr
  50136                JUNCTION      0.00     0.00     0  00:00           0           0       0.000 ltr
  50148                JUNCTION      0.00     0.00     0  00:00           0           0       0.000 ltr
  50149                JUNCTION      0.00     0.00     0  00:00           0           0       0.000 ltr
  50150                JUNCTION      0.00     0.00     0  00:00           0           0       0.000 ltr
  50151                JUNCTION      0.00     0.00     0  00:00           0           0       0.000 ltr
  50152                JUNCTION      0.00     0.00     0  00:00           0           0       0.000 ltr
  50154                JUNCTION      0.00     0.00     0  00:00           0           0       0.000 ltr
  50155                JUNCTION      0.00     0.00     0  00:00           0           0       0.000 ltr
  50156                JUNCTION      0.00     0.00     0  00:00           0           0       0.000 ltr
  50157                JUNCTION      0.00     0.00     0  00:00           0           0       0.000 ltr
  50720                JUNCTION      0.00     0.00     0  00:00           0           0       0.000 ltr
  50721                JUNCTION      0.00     0.00     0  00:00           0           0       0.000 ltr
  50831                JUNCTION      0.00     0.00     0  00:00           0           0       0.000 ltr
  51200                JUNCTION      0.00     0.00     0  00:00           0           0       0.000 ltr
  51201                JUNCTION      0.00     0.00     0  00:00           0           0       0.000 ltr
  51514                JUNCTION      0.00     0.00     0  00:00           0           0       0.000 ltr
  51776                JUNCTION      0.00     0.00     0  00:00           0           0       0.000 ltr
  51777                JUNCTION      0.00     0.00     0  00:00           0           0       0.000 ltr
  51778                JUNCTION      0.00     0.00     0  00:00           0           0       0.000 ltr
  51779                JUNCTION      0.00     0.00     0  00:00           0           0       0.000 ltr
  51780                JUNCTION      0.00     0.00     0  00:00           0           0       0.000 ltr
  51781                JUNCTION      0.00     0.00     0  00:00           0           0       0.000 ltr
  51782                JUNCTION      0.00     0.00     0  00:00           0           0       0.000 ltr
  51783                JUNCTION      0.00     0.00     0  00:00           0           0       0.000 ltr
  53566                JUNCTION      0.00     0.00     0  00:00           0           0       0.000 ltr
  53568                JUNCTION      0.00     0.00     0  00:00           0           0       0.000 ltr
  54                   JUNCTION      0.00     0.00     0  00:00           0           0       0.000 ltr
  56523                JUNCTION      0.00     0.00     0  00:00           0           0       0.000 ltr
  56524                JUNCTION      0.00     0.00     0  00:00           0           0       0.000 ltr
  56525                JUNCTION      0.00     0.00     0  00:00           0           0       0.000 ltr
  56526                JUNCTION      0.00     0.00     0  00:00           0           0       0.000 ltr
  56565                JUNCTION      0.00     0.00     0  00:00           0           0       0.000 ltr
  56717                JUNCTION      0.00     0.00     0  00:00           0           0       0.000 ltr
  56718                JUNCTION      0.00     0.00     0  00:00           0           0       0.000 ltr
  56719                JUNCTION      0.00     0.00     0  00:00           0           0       0.000 ltr
  56720                JUNCTION      0.00     0.00     0  00:00           0           0       0.000 ltr
  56721                JUNCTION      0.00     0.00     0  00:00           0           0       0.000 ltr
  56722                JUNCTION      0.00     0.00     0  00:00           0           0       0.000 ltr
  56723                JUNCTION      0.00     0.00     0  00:00           0           0       0.000 ltr
  56724                JUNCTION      0.00     0.00     0  00:00           0           0       0.000 ltr
  56726                JUNCTION      0.00     0.00     0  00:00           0           0       0.000 ltr
  56727                JUNCTION      0.00     0.00     0  00:00           0           0       0.000 ltr
  57125                JUNCTION      0.00     0.00     0  00:00           0           0       0.000 ltr
  57126                JUNCTION      0.00     0.00     0  00:00           0           0       0.000 ltr
  58744                JUNCTION      0.00     0.00     0  00:00           0           0       0.000 ltr
  58745                JUNCTION      0.00     0.00     0  00:00           0           0       0.000 ltr
  58746                JUNCTION      0.00     0.00     0  00:00           0           0       0.000 ltr
  59036                JUNCTION      0.00     0.00     0  00:00           0           0       0.000 ltr
  59037                JUNCTION      0.00     0.00     0  00:00           0           0       0.000 ltr
  59038                JUNCTION      0.00     0.00     0  00:00           0           0       0.000 ltr
  59255                JUNCTION      0.00     0.00     0  00:00           0           0       0.000 ltr
  60045                JUNCTION      0.00     0.00     0  00:00           0           0       0.000 ltr
  60047                JUNCTION      0.00     0.00     0  00:00           0           0       0.000 ltr
  60064                JUNCTION      0.00     0.00     0  00:00           0           0       0.000 ltr
  60064A               JUNCTION      0.00     0.00     0  00:00           0           0       0.000 ltr
  60067                JUNCTION      0.00     0.00     0  00:00           0           0       0.000 ltr
  60068                JUNCTION      0.00     0.00     0  00:00           0           0       0.000 ltr
  60069                JUNCTION      0.00     0.00     0  00:00           0           0       0.000 ltr
  60070                JUNCTION      0.00     0.00     0  00:00           0           0       0.000 ltr
  60073                JUNCTION      0.00     0.00     0  00:00           0           0       0.000 ltr
  60075                JUNCTION      0.00     0.00     0  00:00           0           0       0.000 ltr
  60076                JUNCTION      0.00     0.00     0  00:00           0           0       0.000 ltr
  60247                JUNCTION      0.00     0.00     0  00:00           0           0       0.000 ltr
  60248                JUNCTION      0.00     0.00     0  00:00           0           0       0.000 ltr
  60249                JUNCTION      0.00     0.00     0  00:00           0           0       0.000 ltr
  60250                JUNCTION      0.00     0.00     0  00:00           0           0       0.000 ltr
  60255                JUNCTION      0.00     0.00     0  00:00           0           0       0.000 ltr
  60256                JUNCTION      0.00     0.00     0  00:00           0           0       0.000 ltr
  60257                JUNCTION      0.00     0.00     0  00:00           0           0       0.000 ltr
  60258                JUNCTION      0.00     0.00     0  00:00           0           0       0.000 ltr
  60259                JUNCTION      0.00     0.00     0  00:00           0           0       0.000 ltr
  60260                JUNCTION      0.00     0.00     0  00:00           0           0       0.000 ltr
  60261                JUNCTION      0.00     0.00     0  00:00           0           0       0.000 ltr
  60262                JUNCTION      0.00     0.00     0  00:00           0           0       0.000 ltr
  60263                JUNCTION      0.00     0.00     0  00:00           0           0       0.000 ltr
  60264                JUNCTION      0.00     0.00     0  00:00           0           0       0.000 ltr
  60265                JUNCTION      0.00     0.00     0  00:00           0           0       0.000 ltr
  60266                JUNCTION      0.00     0.00     0  00:00           0           0       0.000 ltr
  60267                JUNCTION      0.00     0.00     0  00:00           0           0       0.000 ltr
  60268                JUNCTION      0.00     0.00     0  00:00           0           0       0.000 ltr
  60269                JUNCTION      0.00     0.00     0  00:00           0           0       0.000 ltr
  60270                JUNCTION      0.00     0.00     0  00:00           0           0       0.000 ltr
  60271                JUNCTION      0.00     0.00     0  00:00           0           0       0.000 ltr
  60272                JUNCTION      0.00     0.00     0  00:00           0           0       0.000 ltr
  60273                JUNCTION      0.00     0.00     0  00:00           0           0       0.000 ltr
  60274                JUNCTION      0.00     0.00     0  00:00           0           0       0.000 ltr
  60275                JUNCTION      0.00     0.00     0  00:00           0           0       0.000 ltr
  60276                JUNCTION      0.00     0.00     0  00:00           0           0       0.000 ltr
  60277                JUNCTION      0.00     0.00     0  00:00           0           0       0.000 ltr
  60278                JUNCTION      0.00     0.00     0  00:00           0           0       0.000 ltr
  60314                JUNCTION      0.00     0.00     0  00:00           0           0       0.000 ltr
  6205                 JUNCTION      0.00     0.00     0  00:00           0           0       0.000 ltr
  6206                 JUNCTION      0.00     0.00     0  00:00           0           0       0.000 ltr
  6207                 JUNCTION      0.00     0.00     0  00:00           0           0       0.000 ltr
  6208                 JUNCTION      0.00     0.00     0  00:00           0           0       0.000 ltr
  6209                 JUNCTION      0.00     0.00     0  00:00           0           0       0.000 ltr
  6210                 JUNCTION      0.00     0.00     0  00:00           0           0       0.000 ltr
  6211                 JUNCTION      0.00     0.00     0  00:00           0           0       0.000 ltr
  6212                 JUNCTION      0.00     0.00     0  00:00           0           0       0.000 ltr
  6213                 JUNCTION      0.00     0.00     0  00:00           0           0       0.000 ltr
  6214                 JUNCTION      0.00     0.00     0  00:00           0           0       0.000 ltr
  6315                 JUNCTION      0.00     0.00     0  00:00           0           0       0.000 ltr
  6316                 JUNCTION      0.00     0.00     0  00:00           0           0       0.000 ltr
  6317                 JUNCTION      0.00     0.00     0  00:00           0           0       0.000 ltr
  6325                 JUNCTION      0.00     0.00     0  00:00           0           0       0.000 ltr
  6326                 JUNCTION      0.00     0.00     0  00:00           0           0       0.000 ltr
  6327                 JUNCTION      0.00     0.00     0  00:00           0           0       0.000 ltr
  6331                 JUNCTION      0.00     0.00     0  00:00           0           0       0.000 ltr
  6332                 JUNCTION      0.00     0.00     0  00:00           0           0       0.000 ltr
  6333                 JUNCTION      0.00     0.00     0  00:00           0           0       0.000 ltr
  6335                 JUNCTION      0.00     0.00     0  00:00           0           0       0.000 ltr
  6336                 JUNCTION      0.00     0.00     0  00:00           0           0       0.000 ltr
  6337                 JUNCTION      0.00     0.00     0  00:00           0           0       0.000 ltr
  6374                 JUNCTION      0.00     0.00     0  00:00           0           0       0.000 ltr
  6375                 JUNCTION      0.00     0.00     0  00:00           0           0       0.000 ltr
  6414                 JUNCTION      0.00     0.00     0  00:00           0           0       0.000 ltr
  6415                 JUNCTION      0.00     0.00     0  00:00           0           0       0.000 ltr
  6416                 JUNCTION      0.00     0.00     0  00:00           0           0       0.000 ltr
  6518                 JUNCTION      0.00     0.00     0  00:00           0           0       0.000 ltr
  6519                 JUNCTION      0.00     0.00     0  00:00           0           0       0.000 ltr
  6520                 JUNCTION      0.00     0.00     0  00:00           0           0       0.000 ltr
  6521                 JUNCTION      0.00     0.00     0  00:00           0           0       0.000 ltr
  6522                 JUNCTION      0.00     0.00     0  00:00           0           0       0.000 ltr
  6523                 JUNCTION      0.00     0.00     0  00:00           0           0       0.000 ltr
  6524                 JUNCTION      0.00     0.00     0  00:00           0           0       0.000 ltr
  6543                 JUNCTION      0.00     0.00     0  00:00           0           0       0.000 ltr
  6544                 JUNCTION      0.00     0.00     0  00:00           0           0       0.000 ltr
  6545                 JUNCTION      0.00     0.00     0  00:00           0           0       0.000 ltr
  6547                 JUNCTION      0.00     0.00     0  00:00           0           0       0.000 ltr
  6548                 JUNCTION      0.00     0.00     0  00:00           0           0       0.000 ltr
  6549                 JUNCTION      0.00     0.00     0  00:00           0           0       0.000 ltr
  6550                 JUNCTION      0.00     0.00     0  00:00           0           0       0.000 ltr
  6551                 JUNCTION      0.00     0.00     0  00:00           0           0       0.000 ltr
  6552                 JUNCTION      0.00     0.00     0  00:00           0           0       0.000 ltr
  6556                 JUNCTION      0.00     0.00     0  00:00           0           0       0.000 ltr
  6577                 JUNCTION      0.00     0.00     0  00:00           0           0       0.000 ltr
  6578                 JUNCTION      0.00     0.00     0  00:00           0           0       0.000 ltr
  6721                 JUNCTION      0.00     0.00     0  00:00           0           0       0.000 ltr
  6722                 JUNCTION      0.00     0.00     0  00:00           0           0       0.000 ltr
  6824                 JUNCTION      0.00     0.00     0  00:00           0           0       0.000 ltr
  68687                JUNCTION      0.00     0.00     0  00:00           0           0       0.000 ltr
  68702                JUNCTION      0.00     0.00     0  00:00           0           0       0.000 ltr
  68703                JUNCTION      0.00     0.00     0  00:00           0           0       0.000 ltr
  68704                JUNCTION      0.00     0.00     0  00:00           0           0       0.000 ltr
  68705                JUNCTION      0.00     0.00     0  00:00           0           0       0.000 ltr
  68710                JUNCTION      0.00     0.00     0  00:00           0           0       0.000 ltr
  68711                JUNCTION      0.00     0.00     0  00:00           0           0       0.000 ltr
  68712                JUNCTION      0.00     0.00     0  00:00           0           0       0.000 ltr
  6956                 JUNCTION      0.00     0.00     0  00:00           0           0       0.000 ltr
  6957                 JUNCTION      0.00     0.00     0  00:00           0           0       0.000 ltr
  6958                 JUNCTION      0.00     0.00     0  00:00           0           0       0.000 ltr
  6959                 JUNCTION      0.00     0.00     0  00:00           0           0       0.000 ltr
  6960                 JUNCTION      0.00     0.00     0  00:00           0           0       0.000 ltr
  6961                 JUNCTION      0.00     0.00     0  00:00           0           0       0.000 ltr
  6962                 JUNCTION      0.00     0.00     0  00:00           0           0       0.000 ltr
  6963                 JUNCTION      0.00     0.00     0  00:00           0           0       0.000 ltr
  7000                 JUNCTION      0.00     0.00     0  00:00           0           0       0.000 ltr
  7131                 JUNCTION      0.00     0.00     0  00:00           0           0       0.000 ltr
  7161                 JUNCTION      0.00     0.00     0  00:00           0           0       0.000 ltr
  7162                 JUNCTION      0.00     0.00     0  00:00           0           0       0.000 ltr
  7163                 JUNCTION      0.00     0.00     0  00:00           0           0       0.000 ltr
  7164                 JUNCTION      0.00     0.00     0  00:00           0           0       0.000 ltr
  7165                 JUNCTION      0.00     0.00     0  00:00           0           0       0.000 ltr
  7166                 JUNCTION      0.00     0.00     0  00:00           0           0       0.000 ltr
  7167                 JUNCTION      0.00     0.00     0  00:00           0           0       0.000 ltr
  7168                 JUNCTION      0.00     0.00     0  00:00           0           0       0.000 ltr
  7168A                JUNCTION      0.00     0.00     0  00:00           0           0       0.000 ltr
  7169                 JUNCTION      0.00     0.00     0  00:00           0           0       0.000 ltr
  7170                 JUNCTION      0.00     0.00     0  00:00           0           0       0.000 ltr
  7201                 JUNCTION      0.00     0.00     0  00:00           0           0       0.000 ltr
  7202                 JUNCTION      0.00     0.00     0  00:00           0           0       0.000 ltr
  7203                 JUNCTION      0.00     0.00     0  00:00           0           0       0.000 ltr
  7204                 JUNCTION      0.00     0.00     0  00:00           0           0       0.000 ltr
  7205                 JUNCTION      0.00     0.00     0  00:00           0           0       0.000 ltr
  7207                 JUNCTION      0.00     0.00     0  00:00           0           0       0.000 ltr
  7208                 JUNCTION      0.00     0.00     0  00:00           0           0       0.000 ltr
  7209                 JUNCTION      0.00     0.00     0  00:00           0           0       0.000 ltr
  7210                 JUNCTION      0.00     0.00     0  00:00           0           0       0.000 ltr
  7211                 JUNCTION      0.00     0.00     0  00:00           0           0       0.000 ltr
  7212                 JUNCTION      0.00     0.00     0  00:00           0           0       0.000 ltr
  7213                 JUNCTION      0.00     0.00     0  00:00           0           0       0.000 ltr
  7214                 JUNCTION      0.00     0.00     0  00:00           0           0       0.000 ltr
  7215                 JUNCTION      0.00     0.00     0  00:00           0           0       0.000 ltr
  7216                 JUNCTION      0.00     0.00     0  00:00           0           0       0.000 ltr
  7217                 JUNCTION      0.00     0.00     0  00:00           0           0       0.000 ltr
  7218                 JUNCTION      0.00     0.00     0  00:00           0           0       0.000 ltr
  7219                 JUNCTION      0.00     0.00     0  00:00           0           0       0.000 ltr
  7220                 JUNCTION      0.00     0.00     0  00:00           0           0       0.000 ltr
  7221                 JUNCTION      0.00     0.00     0  00:00           0           0       0.000 ltr
  7222                 JUNCTION      0.00     0.00     0  00:00           0           0       0.000 ltr
  72289                JUNCTION      0.00     0.00     0  00:00           0           0       0.000 ltr
  72290                JUNCTION      0.00     0.00     0  00:00           0           0       0.000 ltr
  72291                JUNCTION      0.00     0.00     0  00:00           0           0       0.000 ltr
  72374                JUNCTION      0.00     0.00     0  00:00           0           0       0.000 ltr
  7291                 JUNCTION      0.00     0.00     0  00:00           0           0       0.000 ltr
  7292                 JUNCTION      0.00     0.00     0  00:00           0           0       0.000 ltr
  74414                JUNCTION      0.00     0.00     0  00:00           0           0       0.000 ltr
  74425                JUNCTION      0.00     0.00     0  00:00           0           0       0.000 ltr
  74649                JUNCTION      0.00     0.00     0  00:00           0           0       0.000 ltr
  74724                JUNCTION      0.00     0.00     0  00:00           0           0       0.000 ltr
  74726                JUNCTION      0.00     0.00     0  00:00           0           0       0.000 ltr
  74727                JUNCTION      0.00     0.00     0  00:00           0           0       0.000 ltr
  74728                JUNCTION      0.00     0.00     0  00:00           0           0       0.000 ltr
  74729                JUNCTION      0.00     0.00     0  00:00           0           0       0.000 ltr
  74730                JUNCTION      0.00     0.00     0  00:00           0           0       0.000 ltr
  74731                JUNCTION      0.00     0.00     0  00:00           0           0       0.000 ltr
  74822                JUNCTION      0.00     0.00     0  00:00           0           0       0.000 ltr
  7483                 JUNCTION      0.00     0.00     0  00:00           0           0       0.000 ltr
  7484                 JUNCTION      0.00     0.00     0  00:00           0           0       0.000 ltr
  7485                 JUNCTION      0.00     0.00     0  00:00           0           0       0.000 ltr
  7486                 JUNCTION      0.00     0.00     0  00:00           0           0       0.000 ltr
  7487                 JUNCTION      0.00     0.00     0  00:00           0           0       0.000 ltr
  7488                 JUNCTION      0.00     0.00     0  00:00           0           0       0.000 ltr
  7489                 JUNCTION      0.00     0.00     0  00:00           0           0       0.000 ltr
  7490                 JUNCTION      0.00     0.00     0  00:00           0           0       0.000 ltr
  7491                 JUNCTION      0.00     0.00     0  00:00           0           0       0.000 ltr
  7492                 JUNCTION      0.00     0.00     0  00:00           0           0       0.000 ltr
  7600                 JUNCTION      0.00     0.00     0  00:00           0           0       0.000 ltr
  7601                 JUNCTION      0.00     0.00     0  00:00           0           0       0.000 ltr
  7602                 JUNCTION      0.00     0.00     0  00:00           0           0       0.000 ltr
  7603                 JUNCTION      0.00     0.00     0  00:00           0           0       0.000 ltr
  7604                 JUNCTION      0.00     0.00     0  00:00           0           0       0.000 ltr
  7605                 JUNCTION      0.00     0.00     0  00:00           0           0       0.000 ltr
  7606                 JUNCTION      0.00     0.00     0  00:00           0           0       0.000 ltr
  7607                 JUNCTION      0.00     0.00     0  00:00           0           0       0.000 ltr
  7608                 JUNCTION      0.00     0.00     0  00:00           0           0       0.000 ltr
  7609                 JUNCTION      0.00     0.00     0  00:00           0           0       0.000 ltr
  7631                 JUNCTION      0.00     0.00     0  00:00           0           0       0.000 ltr
  7648                 JUNCTION      0.00     0.00     0  00:00           0           0       0.000 ltr
  7670                 JUNCTION      0.00     0.00     0  00:00           0           0       0.000 ltr
  7671                 JUNCTION      0.00     0.00     0  00:00           0           0       0.000 ltr
  7683                 JUNCTION      0.00     0.00     0  00:00           0           0       0.000 ltr
  7684                 JUNCTION      0.00     0.00     0  00:00           0           0       0.000 ltr
  7685                 JUNCTION      0.00     0.00     0  00:00           0           0       0.000 ltr
  7696                 JUNCTION      0.00     0.00     0  00:00           0           0       0.000 ltr
  7697                 JUNCTION      0.00     0.00     0  00:00           0           0       0.000 ltr
  77150                JUNCTION      0.00     0.00     0  00:00           0           0       0.000 ltr
  77151                JUNCTION      0.00     0.00     0  00:00           0           0       0.000 ltr
  77152                JUNCTION      0.00     0.00     0  00:00           0           0       0.000 ltr
  7778                 JUNCTION      0.00     0.00     0  00:00           0           0       0.000 ltr
  7779                 JUNCTION      0.00     0.00     0  00:00           0           0       0.000 ltr
  7780                 JUNCTION      0.00     0.00     0  00:00           0           0       0.000 ltr
  7782                 JUNCTION      0.00     0.00     0  00:00           0           0       0.000 ltr
  7783                 JUNCTION      0.00     0.00     0  00:00           0           0       0.000 ltr
  7784                 JUNCTION      0.00     0.00     0  00:00           0           0       0.000 ltr
  7786                 JUNCTION      0.00     0.00     0  00:00           0           0       0.000 ltr
  7787                 JUNCTION      0.00     0.00     0  00:00           0           0       0.000 ltr
  7788                 JUNCTION      0.00     0.00     0  00:00           0           0       0.000 ltr
  7789                 JUNCTION      0.00     0.00     0  00:00           0           0       0.000 ltr
  7790                 JUNCTION      0.00     0.00     0  00:00           0           0       0.000 ltr
  7791                 JUNCTION      0.00     0.00     0  00:00           0           0       0.000 ltr
  7792                 JUNCTION      0.00     0.00     0  00:00           0           0       0.000 ltr
  7793                 JUNCTION      0.00     0.00     0  00:00           0           0       0.000 ltr
  78984                JUNCTION      0.00     0.00     0  00:00           0           0       0.000 ltr
  7911                 JUNCTION      0.00     0.00     0  00:00           0           0       0.000 ltr
  7912                 JUNCTION      0.00     0.00     0  00:00           0           0       0.000 ltr
  7913                 JUNCTION      0.00     0.00     0  00:00           0           0       0.000 ltr
  7917                 JUNCTION      0.00     0.00     0  00:00           0           0       0.000 ltr
  7918                 JUNCTION      0.00     0.00     0  00:00           0           0       0.000 ltr
  7919                 JUNCTION      0.00     0.00     0  00:00           0           0       0.000 ltr
  7921                 JUNCTION      0.00     0.00     0  00:00           0           0       0.000 ltr
  8008                 JUNCTION      0.00     0.00     0  00:00           0           0       0.000 ltr
  8009                 JUNCTION      0.00     0.00     0  00:00           0           0       0.000 ltr
  8010                 JUNCTION      0.00     0.00     0  00:00           0           0       0.000 ltr
  8011                 JUNCTION      0.00     0.00     0  00:00           0           0       0.000 ltr
  8012                 JUNCTION      0.00     0.00     0  00:00           0           0       0.000 ltr
  8013                 JUNCTION      0.00     0.00     0  00:00           0           0       0.000 ltr
  80162                JUNCTION      0.00     0.00     0  00:00           0           0       0.000 ltr
  80163                JUNCTION      0.00     0.00     0  00:00           0           0       0.000 ltr
  80166                JUNCTION      0.00     0.00     0  00:00           0           0       0.000 ltr
  8027                 JUNCTION      0.00     0.00     0  00:00           0           0       0.000 ltr
  8062                 JUNCTION      0.00     0.00     0  00:00           0           0       0.000 ltr
  8063                 JUNCTION      0.00     0.00     0  00:00           0           0       0.000 ltr
  8064                 JUNCTION      0.00     0.00     0  00:00           0           0       0.000 ltr
  8065                 JUNCTION      0.00     0.00     0  00:00           0           0       0.000 ltr
  8137                 JUNCTION      0.00     0.00     0  00:00           0           0       0.000 ltr
  8138                 JUNCTION      0.00     0.00     0  00:00           0           0       0.000 ltr
  8139                 JUNCTION      0.00     0.00     0  00:00           0           0       0.000 ltr
  8140                 JUNCTION      0.00     0.00     0  00:00           0           0       0.000 ltr
  8141                 JUNCTION      0.00     0.00     0  00:00           0           0       0.000 ltr
  8142                 JUNCTION      0.00     0.00     0  00:00           0           0       0.000 ltr
  8160                 JUNCTION      0.00     0.00     0  00:00           0           0       0.000 ltr
  8161                 JUNCTION      0.00     0.00     0  00:00           0           0       0.000 ltr
  F1028                JUNCTION      0.00     0.00     0  00:00           0           0       0.000 ltr
  F1140                JUNCTION      0.00     0.00     0  00:00           0           0       0.000 ltr
  F12                  JUNCTION      0.00     0.00     0  00:00           0           0       0.000 ltr
  F1284                JUNCTION      0.00     0.00     0  00:00           0           0       0.000 ltr
  F13001RR             JUNCTION      0.00     0.00     0  00:00           0           0       0.000 ltr
  F14                  JUNCTION      0.00     0.00     0  00:00           0           0       0.000 ltr
  F4014                JUNCTION      0.00     0.00     0  00:00           0           0       0.000 ltr
  F4021                JUNCTION      0.00     0.00     0  00:00           0           0       0.000 ltr
  F40455               JUNCTION      0.00     0.00     0  00:00           0           0       0.000 ltr
  F40487               JUNCTION      0.00     0.00     0  00:00           0           0       0.000 ltr
  F49209               JUNCTION      0.00     0.00     0  00:00           0           0       0.000 ltr
  F50215               JUNCTION      0.00     0.00     0  00:00           0           0       0.000 ltr
  F50216               JUNCTION      0.00     0.00     0  00:00           0           0       0.000 ltr
  F50217               JUNCTION      0.00     0.00     0  00:00           0           0       0.000 ltr
  F50218               JUNCTION      0.00     0.00     0  00:00           0           0       0.000 ltr
  F56422               JUNCTION      0.00     0.00     0  00:00           0           0       0.000 ltr
  F56513               JUNCTION      0.00     0.00     0  00:00           0           0       0.000 ltr
  F56725               JUNCTION      0.00     0.00     0  00:00           0           0       0.000 ltr
  F60115               JUNCTION      0.00     0.00     0  00:00           0           0       0.000 ltr
  F60134               JUNCTION      0.00     0.00     0  00:00           0           0       0.000 ltr
  F60237               JUNCTION      0.00     0.00     0  00:00           0           0       0.000 ltr
  F60237B              JUNCTION      0.00     0.00     0  00:00           0           0       0.000 ltr
  F60307               JUNCTION      0.00     0.00     0  00:00           0           0       0.000 ltr
  F60308               JUNCTION      0.00     0.00     0  00:00           0           0       0.000 ltr
  F60309               JUNCTION      0.00     0.00     0  00:00           0           0       0.000 ltr
  F60312               JUNCTION      0.00     0.00     0  00:00           0           0       0.000 ltr
  F60313               JUNCTION      0.00     0.00     0  00:00           0           0       0.000 ltr
  F60320               JUNCTION      0.00     0.00     0  00:00           0           0       0.000 ltr
  F60322               JUNCTION      0.00     0.00     0  00:00           0           0       0.000 ltr
  F60323               JUNCTION      0.00     0.00     0  00:00           0           0       0.000 ltr
  F60323B              JUNCTION      0.00     0.00     0  00:00           0           0       0.000 ltr
  F60348               JUNCTION      0.00     0.00     0  00:00           0           0       0.000 ltr
  F60373               JUNCTION      0.00     0.00     0  00:00           0           0       0.000 ltr
  F60444               JUNCTION      0.00     0.00     0  00:00           0           0       0.000 ltr
  F60476               JUNCTION      0.00     0.00     0  00:00           0           0       0.000 ltr
  F60712               JUNCTION      0.00     0.00     0  00:00           0           0       0.000 ltr
  F60712A              JUNCTION      0.00     0.00     0  00:00           0           0       0.000 ltr
  F60712B              JUNCTION      0.00     0.00     0  00:00           0           0       0.000 ltr
  F60714               JUNCTION      0.00     0.00     0  00:00           0           0       0.000 ltr
  F60718               JUNCTION      0.00     0.00     0  00:00           0           0       0.000 ltr
  F60719               JUNCTION      0.00     0.00     0  00:00           0           0       0.000 ltr
  F60720               JUNCTION      0.00     0.00     0  00:00           0           0       0.000 ltr
  F60721               JUNCTION      0.00     0.00     0  00:00           0           0       0.000 ltr
  F60947               JUNCTION      0.00     0.00     0  00:00           0           0       0.000 ltr
  F62232               JUNCTION      0.00     0.00     0  00:00           0           0       0.000 ltr
  F68681               JUNCTION      0.00     0.00     0  00:00           0           0       0.000 ltr
  F68683               JUNCTION      0.00     0.00     0  00:00           0           0       0.000 ltr
  F68688               JUNCTION      0.00     0.00     0  00:00           0           0       0.000 ltr
  F70445               JUNCTION      0.00     0.00     0  00:00           0           0       0.000 ltr
  F81433               JUNCTION      0.00     0.00     0  00:00           0           0       0.000 ltr
  F81433B              JUNCTION      0.00     0.00     0  00:00           0           0       0.000 ltr
  FKING                JUNCTION      0.00     0.00     0  00:00           0           0       0.000 ltr
  GA1-MAG              JUNCTION      0.00     0.00     0  00:00           0           0       0.000 ltr
  GA1-MUR              JUNCTION      0.00     0.00     0  00:00           0           0       0.000 ltr
  GA3-A                JUNCTION      0.00     0.00     0  00:00           0           0       0.000 ltr
  GA3-B                JUNCTION      0.00     0.00     0  00:00           0           0       0.000 ltr
  OFALL-22SGRN         OUTFALL       0.00     0.00     0  00:00           0           0       0.000 ltr
  ADAMB14              STORAGE       0.00     0.00     0  00:00           0           0       0.000 ltr
  BANKB16              STORAGE       0.00     0.00     0  00:00           0           0       0.000 ltr
  CHERB19              STORAGE       0.00     0.00     0  00:00           0           0       0.000 ltr
  COLSB12              STORAGE       0.00     0.00     0  00:00           0          30       0.000
  COVEB37              STORAGE       0.00     0.00     0  00:00           0           0       0.000 ltr
  FARNB20              STORAGE       0.00     0.00     0  00:00           0           0       0.000 ltr
  GA1                  STORAGE       0.00     0.00     0  00:00           0           0       0.000 ltr
  GA15                 STORAGE       0.00     0.00     0  00:00           0           0       0.000 ltr
  GA3                  STORAGE       0.00     0.00     0  00:00           0           0       0.000 ltr
  GA4                  STORAGE       0.00     0.00     0  00:00           0           0       0.000 ltr
  GA5                  STORAGE       0.00     0.00     0  00:00           0           0       0.000 ltr
  GA6A                 STORAGE       0.00     0.00     0  00:00           0           0       0.000 ltr
  KINGB11              STORAGE       0.00     0.00     0  00:00           0          30       0.000
  MOORB18              STORAGE       0.00     0.00     0  00:00           0          30       0.000
  NOTTB38              STORAGE       0.00     0.00     0  00:00           0           0       0.000 ltr
  PURKB7               STORAGE       0.00     0.00     0  00:00           0          30       0.000
  PURSB17              STORAGE       0.00     0.00     0  00:00           0           0       0.000 ltr
  RENW                 STORAGE       0.00     0.00     0  00:00           0           0       0.000 ltr
  REN_O                STORAGE       0.00     0.00     0  00:00           0           0       0.000 ltr
  ROSEB40              STORAGE       0.00     0.00     0  00:00           0           0       0.000 ltr
  
  
  **********************
  Node Surcharge Summary
  **********************
  
  No nodes were surcharged.
  
  
  *********************
  Node Flooding Summary
  *********************
  
  No nodes were flooded.
  
  
  **********************
  Storage Volume Summary
  **********************
  
  --------------------------------------------------------------------------------------------------
                         Average     Avg  Evap Exfil       Maximum     Max    Time of Max    Maximum
                          Volume    Pcnt  Pcnt  Pcnt        Volume    Pcnt     Occurrence    Outflow
  Storage Unit           1000 m3    Full  Loss  Loss       1000 m3    Full    days hr:min        LPS
  --------------------------------------------------------------------------------------------------
  ADAMB14              -nan(ind)    -nan(ind)     0     0         0.000       0       0  00:00       0.00
  BANKB16              -nan(ind)    -nan(ind)     0     0         0.000       0       0  00:00       0.00
  CHERB19              -nan(ind)    -nan(ind)     0     0         0.000       0       0  00:00       0.00
  COLSB12              -nan(ind)    -nan(ind)     0     0         0.000       0       0  00:00       0.00
[...]
  68774                   1.00   -nan(ind)  -nan(ind)  -nan(ind)  -nan(ind)  -nan(ind)  -nan(ind)  -nan(ind)  -nan(ind)  -nan(ind)
  68775                   1.00   -nan(ind)  -nan(ind)  -nan(ind)  -nan(ind)  -nan(ind)  -nan(ind)  -nan(ind)  -nan(ind)  -nan(ind)
  68777                   1.00   -nan(ind)  -nan(ind)  -nan(ind)  -nan(ind)  -nan(ind)  -nan(ind)  -nan(ind)  -nan(ind)  -nan(ind)
  68823                   1.00   -nan(ind)  -nan(ind)  -nan(ind)  -nan(ind)  -nan(ind)  -nan(ind)  -nan(ind)  -nan(ind)  -nan(ind)
  68824                   1.00   -nan(ind)  -nan(ind)  -nan(ind)  -nan(ind)  -nan(ind)  -nan(ind)  -nan(ind)  -nan(ind)  -nan(ind)
  68952                   1.00   -nan(ind)  -nan(ind)  -nan(ind)  -nan(ind)  -nan(ind)  -nan(ind)  -nan(ind)  -nan(ind)  -nan(ind)
  72292                   1.00   -nan(ind)  -nan(ind)  -nan(ind)  -nan(ind)  -nan(ind)  -nan(ind)  -nan(ind)  -nan(ind)  -nan(ind)
  72293                   1.00   -nan(ind)  -nan(ind)  -nan(ind)  -nan(ind)  -nan(ind)  -nan(ind)  -nan(ind)  -nan(ind)  -nan(ind)
  72294                   1.00   -nan(ind)  -nan(ind)  -nan(ind)  -nan(ind)  -nan(ind)  -nan(ind)  -nan(ind)  -nan(ind)  -nan(ind)
  72375                   1.00   -nan(ind)  -nan(ind)  -nan(ind)  -nan(ind)  -nan(ind)  -nan(ind)  -nan(ind)  -nan(ind)  -nan(ind)
  74415                   1.00   -nan(ind)  -nan(ind)  -nan(ind)  -nan(ind)  -nan(ind)  -nan(ind)  -nan(ind)  -nan(ind)  -nan(ind)
  74426                   1.00   -nan(ind)  -nan(ind)  -nan(ind)  -nan(ind)  -nan(ind)  -nan(ind)  -nan(ind)  -nan(ind)  -nan(ind)
  74676                   1.00   -nan(ind)  -nan(ind)  -nan(ind)  -nan(ind)  -nan(ind)  -nan(ind)  -nan(ind)  -nan(ind)  -nan(ind)
  74725                   1.00   -nan(ind)  -nan(ind)  -nan(ind)  -nan(ind)  -nan(ind)  -nan(ind)  -nan(ind)  -nan(ind)  -nan(ind)
  74732                   1.00   -nan(ind)  -nan(ind)  -nan(ind)  -nan(ind)  -nan(ind)  -nan(ind)  -nan(ind)  -nan(ind)  -nan(ind)
  74733                   1.00   -nan(ind)  -nan(ind)  -nan(ind)  -nan(ind)  -nan(ind)  -nan(ind)  -nan(ind)  -nan(ind)  -nan(ind)
  74734                   1.00   -nan(ind)  -nan(ind)  -nan(ind)  -nan(ind)  -nan(ind)  -nan(ind)  -nan(ind)  -nan(ind)  -nan(ind)
  74735                   1.00   -nan(ind)  -nan(ind)  -nan(ind)  -nan(ind)  -nan(ind)  -nan(ind)  -nan(ind)  -nan(ind)  -nan(ind)
  74736                   1.00   -nan(ind)  -nan(ind)  -nan(ind)  -nan(ind)  -nan(ind)  -nan(ind)  -nan(ind)  -nan(ind)  -nan(ind)
  74737                   1.00   -nan(ind)  -nan(ind)  -nan(ind)  -nan(ind)  -nan(ind)  -nan(ind)  -nan(ind)  -nan(ind)  -nan(ind)
  74823TNOTT              1.00   -nan(ind)  -nan(ind)  -nan(ind)  -nan(ind)  -nan(ind)  -nan(ind)  -nan(ind)  -nan(ind)  -nan(ind)
  77153                   1.00   -nan(ind)  -nan(ind)  -nan(ind)  -nan(ind)  -nan(ind)  -nan(ind)  -nan(ind)  -nan(ind)  -nan(ind)
  77154                   1.00   -nan(ind)  -nan(ind)  -nan(ind)  -nan(ind)  -nan(ind)  -nan(ind)  -nan(ind)  -nan(ind)  -nan(ind)
  77166                   1.00   -nan(ind)  -nan(ind)  -nan(ind)  -nan(ind)  -nan(ind)  -nan(ind)  -nan(ind)  -nan(ind)  -nan(ind)
  78986                   1.00   -nan(ind)  -nan(ind)  -nan(ind)  -nan(ind)  -nan(ind)  -nan(ind)  -nan(ind)  -nan(ind)  -nan(ind)
  80164                   1.00   -nan(ind)  -nan(ind)  -nan(ind)  -nan(ind)  -nan(ind)  -nan(ind)  -nan(ind)  -nan(ind)  -nan(ind)
  80165                   1.00   -nan(ind)  -nan(ind)  -nan(ind)  -nan(ind)  -nan(ind)  -nan(ind)  -nan(ind)  -nan(ind)  -nan(ind)
  80167                   1.00   -nan(ind)  -nan(ind)  -nan(ind)  -nan(ind)  -nan(ind)  -nan(ind)  -nan(ind)  -nan(ind)  -nan(ind)
  81438R                  1.00   -nan(ind)  -nan(ind)  -nan(ind)  -nan(ind)  -nan(ind)  -nan(ind)  -nan(ind)  -nan(ind)  -nan(ind)
  9043R                   1.00   -nan(ind)  -nan(ind)  -nan(ind)  -nan(ind)  -nan(ind)  -nan(ind)  -nan(ind)  -nan(ind)  -nan(ind)
  9044R                   1.00   -nan(ind)  -nan(ind)  -nan(ind)  -nan(ind)  -nan(ind)  -nan(ind)  -nan(ind)  -nan(ind)  -nan(ind)
  9045                    1.00   -nan(ind)  -nan(ind)  -nan(ind)  -nan(ind)  -nan(ind)  -nan(ind)  -nan(ind)  -nan(ind)  -nan(ind)
  9046                    1.00   -nan(ind)  -nan(ind)  -nan(ind)  -nan(ind)  -nan(ind)  -nan(ind)  -nan(ind)  -nan(ind)  -nan(ind)
  9047                    1.00   -nan(ind)  -nan(ind)  -nan(ind)  -nan(ind)  -nan(ind)  -nan(ind)  -nan(ind)  -nan(ind)  -nan(ind)
  9048                    1.00   -nan(ind)  -nan(ind)  -nan(ind)  -nan(ind)  -nan(ind)  -nan(ind)  -nan(ind)  -nan(ind)  -nan(ind)
  9049                    1.00   -nan(ind)  -nan(ind)  -nan(ind)  -nan(ind)  -nan(ind)  -nan(ind)  -nan(ind)  -nan(ind)  -nan(ind)
  9050                    1.00   -nan(ind)  -nan(ind)  -nan(ind)  -nan(ind)  -nan(ind)  -nan(ind)  -nan(ind)  -nan(ind)  -nan(ind)
  9163                    1.00   -nan(ind)  -nan(ind)  -nan(ind)  -nan(ind)  -nan(ind)  -nan(ind)  -nan(ind)  -nan(ind)  -nan(ind)
  9164                    1.00   -nan(ind)  -nan(ind)  -nan(ind)  -nan(ind)  -nan(ind)  -nan(ind)  -nan(ind)  -nan(ind)  -nan(ind)
  9165                    1.00   -nan(ind)  -nan(ind)  -nan(ind)  -nan(ind)  -nan(ind)  -nan(ind)  -nan(ind)  -nan(ind)  -nan(ind)
  9173                    1.00   -nan(ind)  -nan(ind)  -nan(ind)  -nan(ind)  -nan(ind)  -nan(ind)  -nan(ind)  -nan(ind)  -nan(ind)
  9175                    1.00   -nan(ind)  -nan(ind)  -nan(ind)  -nan(ind)  -nan(ind)  -nan(ind)  -nan(ind)  -nan(ind)  -nan(ind)
  9176R                   1.00   -nan(ind)  -nan(ind)  -nan(ind)  -nan(ind)  -nan(ind)  -nan(ind)  -nan(ind)  -nan(ind)  -nan(ind)
  9180OCOVEN              1.00   -nan(ind)  -nan(ind)  -nan(ind)  -nan(ind)  -nan(ind)  -nan(ind)  -nan(ind)  -nan(ind)  -nan(ind)
  9181                    1.00   -nan(ind)  -nan(ind)  -nan(ind)  -nan(ind)  -nan(ind)  -nan(ind)  -nan(ind)  -nan(ind)  -nan(ind)
  9182                    1.00   -nan(ind)  -nan(ind)  -nan(ind)  -nan(ind)  -nan(ind)  -nan(ind)  -nan(ind)  -nan(ind)  -nan(ind)
  9184                    1.00   -nan(ind)  -nan(ind)  -nan(ind)  -nan(ind)  -nan(ind)  -nan(ind)  -nan(ind)  -nan(ind)  -nan(ind)
  9185                    1.00   -nan(ind)  -nan(ind)  -nan(ind)  -nan(ind)  -nan(ind)  -nan(ind)  -nan(ind)  -nan(ind)  -nan(ind)
  9186                    1.00   -nan(ind)  -nan(ind)  -nan(ind)  -nan(ind)  -nan(ind)  -nan(ind)  -nan(ind)  -nan(ind)  -nan(ind)
  9228                    1.00   -nan(ind)  -nan(ind)  -nan(ind)  -nan(ind)  -nan(ind)  -nan(ind)  -nan(ind)  -nan(ind)  -nan(ind)
  9229                    1.00   -nan(ind)  -nan(ind)  -nan(ind)  -nan(ind)  -nan(ind)  -nan(ind)  -nan(ind)  -nan(ind)  -nan(ind)
  9278TBANK               1.00   -nan(ind)  -nan(ind)  -nan(ind)  -nan(ind)  -nan(ind)  -nan(ind)  -nan(ind)  -nan(ind)  -nan(ind)
  9279                    1.00   -nan(ind)  -nan(ind)  -nan(ind)  -nan(ind)  -nan(ind)  -nan(ind)  -nan(ind)  -nan(ind)  -nan(ind)
  9280                    1.00   -nan(ind)  -nan(ind)  -nan(ind)  -nan(ind)  -nan(ind)  -nan(ind)  -nan(ind)  -nan(ind)  -nan(ind)
  9388R                   1.00   -nan(ind)  -nan(ind)  -nan(ind)  -nan(ind)  -nan(ind)  -nan(ind)  -nan(ind)  -nan(ind)  -nan(ind)
  9391                    1.00   -nan(ind)  -nan(ind)  -nan(ind)  -nan(ind)  -nan(ind)  -nan(ind)  -nan(ind)  -nan(ind)  -nan(ind)
  9392OF                  1.00   -nan(ind)  -nan(ind)  -nan(ind)  -nan(ind)  -nan(ind)  -nan(ind)  -nan(ind)  -nan(ind)  -nan(ind)
  9393                    1.00   -nan(ind)  -nan(ind)  -nan(ind)  -nan(ind)  -nan(ind)  -nan(ind)  -nan(ind)  -nan(ind)  -nan(ind)
  9394                    1.00   -nan(ind)  -nan(ind)  -nan(ind)  -nan(ind)  -nan(ind)  -nan(ind)  -nan(ind)  -nan(ind)  -nan(ind)
  9395                    1.00   -nan(ind)  -nan(ind)  -nan(ind)  -nan(ind)  -nan(ind)  -nan(ind)  -nan(ind)  -nan(ind)  -nan(ind)
  9396                    1.00   -nan(ind)  -nan(ind)  -nan(ind)  -nan(ind)  -nan(ind)  -nan(ind)  -nan(ind)  -nan(ind)  -nan(ind)
  9397                    1.00   -nan(ind)  -nan(ind)  -nan(ind)  -nan(ind)  -nan(ind)  -nan(ind)  -nan(ind)  -nan(ind)  -nan(ind)
  9418                    1.00   -nan(ind)  -nan(ind)  -nan(ind)  -nan(ind)  -nan(ind)  -nan(ind)  -nan(ind)  -nan(ind)  -nan(ind)
  9419                    1.00   -nan(ind)  -nan(ind)  -nan(ind)  -nan(ind)  -nan(ind)  -nan(ind)  -nan(ind)  -nan(ind)  -nan(ind)
  9420R                   1.00   -nan(ind)  -nan(ind)  -nan(ind)  -nan(ind)  -nan(ind)  -nan(ind)  -nan(ind)  -nan(ind)  -nan(ind)
  9422R                   1.00   -nan(ind)  -nan(ind)  -nan(ind)  -nan(ind)  -nan(ind)  -nan(ind)  -nan(ind)  -nan(ind)  -nan(ind)
  9423                    1.00   -nan(ind)  -nan(ind)  -nan(ind)  -nan(ind)  -nan(ind)  -nan(ind)  -nan(ind)  -nan(ind)  -nan(ind)
  9424                    1.00   -nan(ind)  -nan(ind)  -nan(ind)  -nan(ind)  -nan(ind)  -nan(ind)  -nan(ind)  -nan(ind)  -nan(ind)
  9425                    1.00   -nan(ind)  -nan(ind)  -nan(ind)  -nan(ind)  -nan(ind)  -nan(ind)  -nan(ind)  -nan(ind)  -nan(ind)
  9426                    1.00   -nan(ind)  -nan(ind)  -nan(ind)  -nan(ind)  -nan(ind)  -nan(ind)  -nan(ind)  -nan(ind)  -nan(ind)
  9427                    1.00   -nan(ind)  -nan(ind)  -nan(ind)  -nan(ind)  -nan(ind)  -nan(ind)  -nan(ind)  -nan(ind)  -nan(ind)
  9431                    1.00   -nan(ind)  -nan(ind)  -nan(ind)  -nan(ind)  -nan(ind)  -nan(ind)  -nan(ind)  -nan(ind)  -nan(ind)
  9452                    1.00   -nan(ind)  -nan(ind)  -nan(ind)  -nan(ind)  -nan(ind)  -nan(ind)  -nan(ind)  -nan(ind)  -nan(ind)
  9453                    1.00   -nan(ind)  -nan(ind)  -nan(ind)  -nan(ind)  -nan(ind)  -nan(ind)  -nan(ind)  -nan(ind)  -nan(ind)
  9454                    1.00   -nan(ind)  -nan(ind)  -nan(ind)  -nan(ind)  -nan(ind)  -nan(ind)  -nan(ind)  -nan(ind)  -nan(ind)
  F12NELS_KING            1.00   -nan(ind)  -nan(ind)  -nan(ind)  -nan(ind)  -nan(ind)  -nan(ind)  -nan(ind)  -nan(ind)  -nan(ind)
  F13000R                 1.00   -nan(ind)  -nan(ind)  -nan(ind)  -nan(ind)  -nan(ind)  -nan(ind)  -nan(ind)  -nan(ind)  -nan(ind)
  F13001R                 1.00   -nan(ind)  -nan(ind)  -nan(ind)  -nan(ind)  -nan(ind)  -nan(ind)  -nan(ind)  -nan(ind)  -nan(ind)
  F13001RVB               1.00   -nan(ind)  -nan(ind)  -nan(ind)  -nan(ind)  -nan(ind)  -nan(ind)  -nan(ind)  -nan(ind)  -nan(ind)
  F13011OPURS             1.00   -nan(ind)  -nan(ind)  -nan(ind)  -nan(ind)  -nan(ind)  -nan(ind)  -nan(ind)  -nan(ind)  -nan(ind)
  F14                     1.00   -nan(ind)  -nan(ind)  -nan(ind)  -nan(ind)  -nan(ind)  -nan(ind)  -nan(ind)  -nan(ind)  -nan(ind)
  F16OMOOR                1.00   -nan(ind)  -nan(ind)  -nan(ind)  -nan(ind)  -nan(ind)  -nan(ind)  -nan(ind)  -nan(ind)  -nan(ind)
  F18OKING-NU             1.00   -nan(ind)  -nan(ind)  -nan(ind)  -nan(ind)  -nan(ind)  -nan(ind)  -nan(ind)  -nan(ind)  -nan(ind)
  F50219                  1.00   -nan(ind)  -nan(ind)  -nan(ind)  -nan(ind)  -nan(ind)  -nan(ind)  -nan(ind)  -nan(ind)  -nan(ind)
  F50220                  1.00   -nan(ind)  -nan(ind)  -nan(ind)  -nan(ind)  -nan(ind)  -nan(ind)  -nan(ind)  -nan(ind)  -nan(ind)
  F50221                  1.00   -nan(ind)  -nan(ind)  -nan(ind)  -nan(ind)  -nan(ind)  -nan(ind)  -nan(ind)  -nan(ind)  -nan(ind)
  F50222                  1.00   -nan(ind)  -nan(ind)  -nan(ind)  -nan(ind)  -nan(ind)  -nan(ind)  -nan(ind)  -nan(ind)  -nan(ind)
  F50223                  1.00   -nan(ind)  -nan(ind)  -nan(ind)  -nan(ind)  -nan(ind)  -nan(ind)  -nan(ind)  -nan(ind)  -nan(ind)
  F56423                  1.00   -nan(ind)  -nan(ind)  -nan(ind)  -nan(ind)  -nan(ind)  -nan(ind)  -nan(ind)  -nan(ind)  -nan(ind)
  F56732                  1.00   -nan(ind)  -nan(ind)  -nan(ind)  -nan(ind)  -nan(ind)  -nan(ind)  -nan(ind)  -nan(ind)  -nan(ind)
  F56733                  1.00   -nan(ind)  -nan(ind)  -nan(ind)  -nan(ind)  -nan(ind)  -nan(ind)  -nan(ind)  -nan(ind)  -nan(ind)
  F60116                  3.05   -nan(ind)  -nan(ind)  -nan(ind)  -nan(ind)  -nan(ind)  -nan(ind)  -nan(ind)  -nan(ind)  -nan(ind)
  F60317                  2.89   -nan(ind)  -nan(ind)  -nan(ind)  -nan(ind)  -nan(ind)  -nan(ind)  -nan(ind)  -nan(ind)  -nan(ind)
  F60318                  1.16   -nan(ind)  -nan(ind)  -nan(ind)  -nan(ind)  -nan(ind)  -nan(ind)  -nan(ind)  -nan(ind)  -nan(ind)
  F60319                  1.00   -nan(ind)  -nan(ind)  -nan(ind)  -nan(ind)  -nan(ind)  -nan(ind)  -nan(ind)  -nan(ind)  -nan(ind)
  F60321                  1.00   -nan(ind)  -nan(ind)  -nan(ind)  -nan(ind)  -nan(ind)  -nan(ind)  -nan(ind)  -nan(ind)  -nan(ind)
  F60324                  1.00   -nan(ind)  -nan(ind)  -nan(ind)  -nan(ind)  -nan(ind)  -nan(ind)  -nan(ind)  -nan(ind)  -nan(ind)
  F60710                  1.00   -nan(ind)  -nan(ind)  -nan(ind)  -nan(ind)  -nan(ind)  -nan(ind)  -nan(ind)  -nan(ind)  -nan(ind)
  F60710B                 1.00   -nan(ind)  -nan(ind)  -nan(ind)  -nan(ind)  -nan(ind)  -nan(ind)  -nan(ind)  -nan(ind)  -nan(ind)
  F60713                  1.00   -nan(ind)  -nan(ind)  -nan(ind)  -nan(ind)  -nan(ind)  -nan(ind)  -nan(ind)  -nan(ind)  -nan(ind)
  F60713A                 1.00   -nan(ind)  -nan(ind)  -nan(ind)  -nan(ind)  -nan(ind)  -nan(ind)  -nan(ind)  -nan(ind)  -nan(ind)
  F60713B                 1.00   -nan(ind)  -nan(ind)  -nan(ind)  -nan(ind)  -nan(ind)  -nan(ind)  -nan(ind)  -nan(ind)  -nan(ind)
  F60715                  1.00   -nan(ind)  -nan(ind)  -nan(ind)  -nan(ind)  -nan(ind)  -nan(ind)  -nan(ind)  -nan(ind)  -nan(ind)
  F60716                  1.00   -nan(ind)  -nan(ind)  -nan(ind)  -nan(ind)  -nan(ind)  -nan(ind)  -nan(ind)  -nan(ind)  -nan(ind)
  F60717                  1.00   -nan(ind)  -nan(ind)  -nan(ind)  -nan(ind)  -nan(ind)  -nan(ind)  -nan(ind)  -nan(ind)  -nan(ind)
  F60717B                 1.00   -nan(ind)  -nan(ind)  -nan(ind)  -nan(ind)  -nan(ind)  -nan(ind)  -nan(ind)  -nan(ind)  -nan(ind)
  F60722                  3.93   -nan(ind)  -nan(ind)  -nan(ind)  -nan(ind)  -nan(ind)  -nan(ind)  -nan(ind)  -nan(ind)  -nan(ind)
  F60723                  1.00   -nan(ind)  -nan(ind)  -nan(ind)  -nan(ind)  -nan(ind)  -nan(ind)  -nan(ind)  -nan(ind)  -nan(ind)
  F60724                  1.00   -nan(ind)  -nan(ind)  -nan(ind)  -nan(ind)  -nan(ind)  -nan(ind)  -nan(ind)  -nan(ind)  -nan(ind)
  F607250COLS             1.00   -nan(ind)  -nan(ind)  -nan(ind)  -nan(ind)  -nan(ind)  -nan(ind)  -nan(ind)  -nan(ind)  -nan(ind)
  F60726OPURN             1.00   -nan(ind)  -nan(ind)  -nan(ind)  -nan(ind)  -nan(ind)  -nan(ind)  -nan(ind)  -nan(ind)  -nan(ind)
  F60948                  2.20   -nan(ind)  -nan(ind)  -nan(ind)  -nan(ind)  -nan(ind)  -nan(ind)  -nan(ind)  -nan(ind)  -nan(ind)
  F68691                  1.00   -nan(ind)  -nan(ind)  -nan(ind)  -nan(ind)  -nan(ind)  -nan(ind)  -nan(ind)  -nan(ind)  -nan(ind)
  F68693                  1.00   -nan(ind)  -nan(ind)  -nan(ind)  -nan(ind)  -nan(ind)  -nan(ind)  -nan(ind)  -nan(ind)  -nan(ind)
  F68859OROSE             1.00   -nan(ind)  -nan(ind)  -nan(ind)  -nan(ind)  -nan(ind)  -nan(ind)  -nan(ind)  -nan(ind)  -nan(ind)
  F81430                  1.00   -nan(ind)  -nan(ind)  -nan(ind)  -nan(ind)  -nan(ind)  -nan(ind)  -nan(ind)  -nan(ind)  -nan(ind)
  F81431                  1.00   -nan(ind)  -nan(ind)  -nan(ind)  -nan(ind)  -nan(ind)  -nan(ind)  -nan(ind)  -nan(ind)  -nan(ind)
  F81434                  1.00   -nan(ind)  -nan(ind)  -nan(ind)  -nan(ind)  -nan(ind)  -nan(ind)  -nan(ind)  -nan(ind)  -nan(ind)
  F81434B                 1.00   -nan(ind)  -nan(ind)  -nan(ind)  -nan(ind)  -nan(ind)  -nan(ind)  -nan(ind)  -nan(ind)  -nan(ind)
  F9041OADAM              1.00   -nan(ind)  -nan(ind)  -nan(ind)  -nan(ind)  -nan(ind)  -nan(ind)  -nan(ind)  -nan(ind)  -nan(ind)
  F9174OBANK              1.00   -nan(ind)  -nan(ind)  -nan(ind)  -nan(ind)  -nan(ind)  -nan(ind)  -nan(ind)  -nan(ind)  -nan(ind)
  F9389                   1.00   -nan(ind)  -nan(ind)  -nan(ind)  -nan(ind)  -nan(ind)  -nan(ind)  -nan(ind)  -nan(ind)  -nan(ind)
  F9390                   1.00   -nan(ind)  -nan(ind)  -nan(ind)  -nan(ind)  -nan(ind)  -nan(ind)  -nan(ind)  -nan(ind)  -nan(ind)
  FB20_CMPLT_RM           1.00   -nan(ind)  -nan(ind)  -nan(ind)  -nan(ind)  -nan(ind)  -nan(ind)  -nan(ind)  -nan(ind)  -nan(ind)
  FKRISER                 2.28   -nan(ind)  -nan(ind)  -nan(ind)  -nan(ind)  -nan(ind)  -nan(ind)  -nan(ind)  -nan(ind)  -nan(ind)
  GA3-B                   1.00   -nan(ind)  -nan(ind)  -nan(ind)  -nan(ind)  -nan(ind)  -nan(ind)  -nan(ind)  -nan(ind)  -nan(ind)
  GA6A                    1.00   -nan(ind)  -nan(ind)  -nan(ind)  -nan(ind)  -nan(ind)  -nan(ind)  -nan(ind)  -nan(ind)  -nan(ind)
  RENGA-NU                1.00   -nan(ind)  -nan(ind)  -nan(ind)  -nan(ind)  -nan(ind)  -nan(ind)  -nan(ind)  -nan(ind)  -nan(ind)
  XW2RENGM                1.21   -nan(ind)  -nan(ind)  -nan(ind)  -nan(ind)  -nan(ind)  -nan(ind)  -nan(ind)  -nan(ind)  -nan(ind)
  
  
  *************************
  Conduit Surcharge Summary
  *************************
  
  No conduits were surcharged.
  
  
  ***************
  Pumping Summary
  ***************
  
  ---------------------------------------------------------------------------------------------------------
                                                  Min       Avg       Max     Total     Power    % Time Off
                        Percent   Number of      Flow      Flow      Flow    Volume     Usage    Pump Curve
  Pump                 Utilized   Start-Ups       LPS       LPS       LPS  10^6 ltr     Kw-hr    Low   High
  ---------------------------------------------------------------------------------------------------------
  ADAMR                -nan(ind)           0      0.00      0.00      0.00     0.000      0.00    0.0    0.0
  BANK                 -nan(ind)           0      0.00      0.00      0.00     0.000      0.00    0.0    0.0
  CHERR                -nan(ind)           0      0.00      0.00      0.00     0.000      0.00    0.0    0.0
  COLS                 -nan(ind)           0      0.00      0.00      0.00     0.000      0.00    0.0    0.0
  COLSB                -nan(ind)           0      0.00      0.00      0.00     0.000      0.00    0.0    0.0
  COVE                 -nan(ind)           0      0.00      0.00      0.00     0.000      0.00    0.0    0.0
  COVEB                -nan(ind)           0      0.00      0.00      0.00     0.000      0.00    0.0    0.0
  FARNR                -nan(ind)           0      0.00      0.00      0.00     0.000      0.00    0.0    0.0
  KINGBR               -nan(ind)           0      0.00      0.00      0.00     0.000      0.00    0.0    0.0
  KINGR                -nan(ind)           0      0.00      0.00      0.00     0.000      0.00    0.0    0.0
  MOORBR               -nan(ind)           0      0.00      0.00      0.00     0.000      0.00    0.0    0.0
  MOORR                -nan(ind)           0      0.00      0.00      0.00     0.000      0.00    0.0    0.0
  NOTT                 -nan(ind)           0      0.00      0.00      0.00     0.000      0.00    0.0    0.0
  NOTTB                -nan(ind)           0      0.00      0.00      0.00     0.000      0.00    0.0    0.0
  PURKNBR              -nan(ind)           0      0.00      0.00      0.00     0.000      0.00    0.0    0.0
  PURKNR               -nan(ind)           0      0.00      0.00      0.00     0.000      0.00    0.0    0.0
  PURS                 -nan(ind)           0      0.00      0.00      0.00     0.000      0.00    0.0    0.0
  RENW                 -nan(ind)           0      0.00      0.00      0.00     0.000      0.00    0.0    0.0
  RENWB                -nan(ind)           0      0.00      0.00      0.00     0.000      0.00    0.0    0.0
  ROSER                -nan(ind)           0      0.00      0.00      0.00     0.000      0.00    0.0    0.0
  

  Analysis begun on:  Sat Nov 30 08:11:25 2019
  Analysis ended on:  Sat Nov 30 08:11:25 2019
  Total elapsed time: < 1 sec