
  EPA STORM WATER MANAGEMENT MODEL - VERSION 5.1 (Build 5.1.013)
  --------------------------------------------------------------

  WARNING 03: negative offset ignored for Link 136687
  WARNING 03: negative offset ignored for Link 137366
  WARNING 03: negative offset ignored for Link 137367
  WARNING 03: negative offset ignored for Link 18195
  WARNING 04: minimum elevation drop used for Conduit 18356
  WARNING 04: minimum elevation drop used for Conduit 4598
  WARNING 03: negative offset ignored for Link 80001
  WARNING 03: negative offset ignored for Link 80013
  WARNING 03: negative offset ignored for Link INLET
  WARNING 02: maximum depth increased for Node 6752
  WARNING 02: maximum depth increased for Node JCT-14
  
  *********************************************************
  NOTE: The summary statistics displayed in this report are
  based on results found at every computational time step,  
  not just on results from each reporting time step.
  *********************************************************
  
  ****************
  Analysis Options
  ****************
  Flow Units ............... LPS
  Process Models:
    Rainfall/Runoff ........ NO
    RDII ................... NO
    Snowmelt ............... NO
    Groundwater ............ NO
    Flow Routing ........... YES
    Ponding Allowed ........ NO
    Water Quality .......... NO
  Flow Routing Method ...... DYNWAVE
  Surcharge Method ......... EXTRAN
  Starting Date ............ 10/19/2011 00:00:00
  Ending Date .............. 10/20/2011 02:00:00
  Antecedent Dry Days ...... 5.0
  Report Time Step ......... 00:00:01
  Routing Time Step ........ 1.00 sec
  Variable Time Step ....... YES
  Maximum Trials ........... 8
  Number of Threads ........ 8
  Head Tolerance ........... 0.001000 m
  
  
  *********************
  Control Actions Taken
  *********************

  
  **************************        Volume        Volume
  Flow Routing Continuity        hectare-m      10^6 ltr
  **************************     ---------     ---------
  Dry Weather Inflow .......         0.000         0.000
  Wet Weather Inflow .......         0.000         0.000
  Groundwater Inflow .......         0.000         0.000
  RDII Inflow ..............         0.000         0.000
  External Inflow ..........         0.000         0.000
  External Outflow .........         0.000         0.000
  Flooding Loss ............         0.000         0.000
  Evaporation Loss .........         0.000         0.000
  Exfiltration Loss ........         0.000         0.000
  Initial Stored Volume ....         0.000         0.000
  Final Stored Volume ......         0.000         0.000
  Continuity Error (%) .....         0.000
  
  
  ***************************
  Time-Step Critical Elements
  ***************************
  None
  
  
  ********************************
  Highest Flow Instability Indexes
  ********************************
  All links are stable.
  
  
  ******************
  Node Depth Summary
  ******************
  
  ---------------------------------------------------------------------------------
                                 Average  Maximum  Maximum  Time of Max    Reported
                                   Depth    Depth      HGL   Occurrence   Max Depth
  Node                 Type       Meters   Meters   Meters  days hr:min      Meters
  ---------------------------------------------------------------------------------
  112530               JUNCTION  -nan(ind)     0.00    26.26     0  00:00        0.00
  122874               JUNCTION  -nan(ind)     0.00    43.06     0  00:00        0.00
  122875               JUNCTION  -nan(ind)     0.00    44.90     0  00:00        0.00
  122876               JUNCTION  -nan(ind)     0.00     0.00     0  00:00        0.00
  122877               JUNCTION  -nan(ind)     0.00    46.36     0  00:00        0.00
  122878               JUNCTION  -nan(ind)     0.00    47.79     0  00:00        0.00
  122879               JUNCTION  -nan(ind)     0.00    50.55     0  00:00        0.00
  122880               JUNCTION  -nan(ind)     0.00    52.46     0  00:00        0.00
  122881               JUNCTION  -nan(ind)     0.00    44.73     0  00:00        0.00
  122882               JUNCTION  -nan(ind)     0.00    40.38     0  00:00        0.00
  122883               JUNCTION  -nan(ind)     0.00    41.74     0  00:00        0.00
  122884               JUNCTION  -nan(ind)     0.00    42.45     0  00:00        0.00
  122885               JUNCTION  -nan(ind)     0.00    43.34     0  00:00        0.00
  122886               JUNCTION  -nan(ind)     0.00    43.37     0  00:00        0.00
  122887               JUNCTION  -nan(ind)     0.00    43.38     0  00:00        0.00
  122888               JUNCTION  -nan(ind)     0.00    42.21     0  00:00        0.00
  122889               JUNCTION  -nan(ind)     0.00    45.02     0  00:00        0.00
  122890               JUNCTION  -nan(ind)     0.00    46.93     0  00:00        0.00
  122891               JUNCTION  -nan(ind)     0.00    48.78     0  00:00        0.00
  122892               JUNCTION  -nan(ind)     0.00    49.89     0  00:00        0.00
  122893               JUNCTION  -nan(ind)     0.00    51.00     0  00:00        0.00
  122894               JUNCTION  -nan(ind)     0.00    49.49     0  00:00        0.00
  122896               JUNCTION  -nan(ind)     0.00    45.10     0  00:00        0.00
  122897               JUNCTION  -nan(ind)     0.00    46.09     0  00:00        0.00
  122898               JUNCTION  -nan(ind)     0.00    47.25     0  00:00        0.00
  122899               JUNCTION  -nan(ind)     0.00    46.25     0  00:00        0.00
  122900               JUNCTION  -nan(ind)     0.00    47.61     0  00:00        0.00
  122901               JUNCTION  -nan(ind)     0.00    47.94     0  00:00        0.00
  122902               JUNCTION  -nan(ind)     0.00    50.73     0  00:00        0.00
  122903               JUNCTION  -nan(ind)     0.00    52.16     0  00:00        0.00
  122904               JUNCTION  -nan(ind)     0.00    52.28     0  00:00        0.00
  122905               JUNCTION  -nan(ind)     0.00    44.78     0  00:00        0.00
  122906               JUNCTION  -nan(ind)     0.00    44.52     0  00:00        0.00
  122907               JUNCTION  -nan(ind)     0.00     0.00     0  00:00        0.00
  122909               JUNCTION  -nan(ind)     0.00    51.98     0  00:00        0.00
  122910               JUNCTION  -nan(ind)     0.00    44.68     0  00:00        0.00
  122912               JUNCTION  -nan(ind)     0.00    28.99     0  00:00        0.00
  122913               JUNCTION  -nan(ind)     0.00    29.55     0  00:00        0.00
  122914               JUNCTION  -nan(ind)     0.00    30.47     0  00:00        0.00
  122915               JUNCTION  -nan(ind)     0.00    31.36     0  00:00        0.00
  122916               JUNCTION  -nan(ind)     0.00    35.80     0  00:00        0.00
  122917               JUNCTION  -nan(ind)     0.00    36.02     0  00:00        0.00
  122918               JUNCTION  -nan(ind)     0.00    39.65     0  00:00        0.00
  122919               JUNCTION  -nan(ind)     0.00    40.00     0  00:00        0.00
  122920               JUNCTION  -nan(ind)     0.00    40.22     0  00:00        0.00
  122921               JUNCTION  -nan(ind)     0.00    40.64     0  00:00        0.00
  122922               JUNCTION  -nan(ind)     0.00    41.32     0  00:00        0.00
  122923               JUNCTION  -nan(ind)     0.00    42.49     0  00:00        0.00
  122924               JUNCTION  -nan(ind)     0.00    42.77     0  00:00        0.00
  122925               JUNCTION  -nan(ind)     0.00    42.91     0  00:00        0.00
  122926               JUNCTION  -nan(ind)     0.00    45.06     0  00:00        0.00
  122927               JUNCTION  -nan(ind)     0.00    50.85     0  00:00        0.00
  12313                JUNCTION  -nan(ind)     0.00    33.17     0  00:00        0.00
  12315                JUNCTION  -nan(ind)     0.00    33.55     0  00:00        0.00
  12317                JUNCTION  -nan(ind)     0.00    34.61     0  00:00        0.00
  12319                JUNCTION  -nan(ind)     0.00    35.15     0  00:00        0.00
  12321                JUNCTION  -nan(ind)     0.00    38.06     0  00:00        0.00
  12322                JUNCTION  -nan(ind)     0.00    43.91     0  00:00        0.00
  12324                JUNCTION  -nan(ind)     0.00    37.39     0  00:00        0.00
  12327                JUNCTION  -nan(ind)     0.00    32.02     0  00:00        0.00
  12329                JUNCTION  -nan(ind)     0.00    32.33     0  00:00        0.00
  12331                JUNCTION  -nan(ind)     0.00    38.74     0  00:00        0.00
  12333                JUNCTION  -nan(ind)     0.00    32.43     0  00:00        0.00
  12335                JUNCTION  -nan(ind)     0.00    33.79     0  00:00        0.00
  12337                JUNCTION  -nan(ind)     0.00    34.30     0  00:00        0.00
  12339                JUNCTION  -nan(ind)     0.00    34.47     0  00:00        0.00
  123393               JUNCTION  -nan(ind)     0.00    72.49     0  00:00        0.00
  123394               JUNCTION  -nan(ind)     0.00    69.55     0  00:00        0.00
  123395               JUNCTION  -nan(ind)     0.00    64.45     0  00:00        0.00
  123396               JUNCTION  -nan(ind)     0.00    63.80     0  00:00        0.00
  123397               JUNCTION  -nan(ind)     0.00    68.59     0  00:00        0.00
  123398               JUNCTION  -nan(ind)     0.00    72.39     0  00:00        0.00
  123399               JUNCTION  -nan(ind)     0.00    67.42     0  00:00        0.00
  12344                JUNCTION  -nan(ind)     0.00    34.99     0  00:00        0.00
  12346                JUNCTION  -nan(ind)     0.00    35.57     0  00:00        0.00
  12348                JUNCTION  -nan(ind)     0.00    36.98     0  00:00        0.00
  12350                JUNCTION  -nan(ind)     0.00    37.20     0  00:00        0.00
  12352                JUNCTION  -nan(ind)     0.00    38.10     0  00:00        0.00
  12354                JUNCTION  -nan(ind)     0.00    40.51     0  00:00        0.00
  12356                JUNCTION  -nan(ind)     0.00    42.60     0  00:00        0.00
  12358                JUNCTION  -nan(ind)     0.00    44.14     0  00:00        0.00
  12360                JUNCTION  -nan(ind)     0.00    29.58     0  00:00        0.00
  12362                JUNCTION  -nan(ind)     0.00    29.88     0  00:00        0.00
  12364                JUNCTION  -nan(ind)     0.00    30.20     0  00:00        0.00
  12367                JUNCTION  -nan(ind)     0.00    30.61     0  00:00        0.00
  12369                JUNCTION  -nan(ind)     0.00    32.64     0  00:00        0.00
  12371                JUNCTION  -nan(ind)     0.00    31.02     0  00:00        0.00
  12373                JUNCTION  -nan(ind)     0.00    31.41     0  00:00        0.00
  12375                JUNCTION  -nan(ind)     0.00    31.78     0  00:00        0.00
  12377                JUNCTION  -nan(ind)     0.00    32.11     0  00:00        0.00
  12379                JUNCTION  -nan(ind)     0.00    33.69     0  00:00        0.00
  12381                JUNCTION  -nan(ind)     0.00    34.43     0  00:00        0.00
  12383                JUNCTION  -nan(ind)     0.00    34.24     0  00:00        0.00
  12386                JUNCTION  -nan(ind)     0.00    34.82     0  00:00        0.00
  12389                JUNCTION  -nan(ind)     0.00    38.44     0  00:00        0.00
  12391                JUNCTION  -nan(ind)     0.00    39.44     0  00:00        0.00
  12393                JUNCTION  -nan(ind)     0.00    41.86     0  00:00        0.00
  12395                JUNCTION  -nan(ind)     0.00    32.56     0  00:00        0.00
  12397                JUNCTION  -nan(ind)     0.00    32.82     0  00:00        0.00
  12399                JUNCTION  -nan(ind)     0.00    33.99     0  00:00        0.00
  12401                JUNCTION  -nan(ind)     0.00    34.62     0  00:00        0.00
  12403                JUNCTION  -nan(ind)     0.00    34.92     0  00:00        0.00
  12405                JUNCTION  -nan(ind)     0.00    36.82     0  00:00        0.00
  12407                JUNCTION  -nan(ind)     0.00    39.75     0  00:00        0.00
  12409                JUNCTION  -nan(ind)     0.00    41.06     0  00:00        0.00
  12412                JUNCTION  -nan(ind)     0.00    34.50     0  00:00        0.00
  12414                JUNCTION  -nan(ind)     0.00    36.72     0  00:00        0.00
  12416                JUNCTION  -nan(ind)     0.00    40.98     0  00:00        0.00
  12418                JUNCTION  -nan(ind)     0.00    43.65     0  00:00        0.00
  12421                JUNCTION  -nan(ind)     0.00    42.07     0  00:00        0.00
  12423                JUNCTION  -nan(ind)     0.00    37.76     0  00:00        0.00
  12425                JUNCTION  -nan(ind)     0.00    40.02     0  00:00        0.00
  12427                JUNCTION  -nan(ind)     0.00    42.05     0  00:00        0.00
  12429                JUNCTION  -nan(ind)     0.00    44.93     0  00:00        0.00
  12431                JUNCTION  -nan(ind)     0.00    46.45     0  00:00        0.00
  12434                JUNCTION  -nan(ind)     0.00    38.07     0  00:00        0.00
  12436                JUNCTION  -nan(ind)     0.00    54.50     0  00:00        0.00
  12439                JUNCTION  -nan(ind)     0.00    57.55     0  00:00        0.00
  12441                JUNCTION  -nan(ind)     0.00    58.09     0  00:00        0.00
  12443                JUNCTION  -nan(ind)     0.00    59.56     0  00:00        0.00
  12445                JUNCTION  -nan(ind)     0.00    58.12     0  00:00        0.00
  12447                JUNCTION  -nan(ind)     0.00    61.84     0  00:00        0.00
  12449                JUNCTION  -nan(ind)     0.00    64.80     0  00:00        0.00
  12451                JUNCTION  -nan(ind)     0.00    66.83     0  00:00        0.00
  12453                JUNCTION  -nan(ind)     0.00    64.70     0  00:00        0.00
  12455                JUNCTION  -nan(ind)     0.00    65.89     0  00:00        0.00
  12457                JUNCTION  -nan(ind)     0.00    66.17     0  00:00        0.00
  12459                JUNCTION  -nan(ind)     0.00    60.65     0  00:00        0.00
  12462                JUNCTION  -nan(ind)     0.00    61.26     0  00:00        0.00
  12466                JUNCTION  -nan(ind)     0.00    61.57     0  00:00        0.00
  12468                JUNCTION  -nan(ind)     0.00    61.65     0  00:00        0.00
  12470                JUNCTION  -nan(ind)     0.00    62.29     0  00:00        0.00
  12472                JUNCTION  -nan(ind)     0.00    64.08     0  00:00        0.00
  12583                JUNCTION  -nan(ind)     0.00    41.02     0  00:00        0.00
  12585                JUNCTION  -nan(ind)     0.00    43.11     0  00:00        0.00
  12587                JUNCTION  -nan(ind)     0.00    43.14     0  00:00        0.00
  135222               JUNCTION  -nan(ind)     0.00    37.62     0  00:00        0.00
  135223               JUNCTION  -nan(ind)     0.00    37.18     0  00:00        0.00
  135224               JUNCTION  -nan(ind)     0.00    36.51     0  00:00        0.00
  135225               JUNCTION  -nan(ind)     0.00    43.02     0  00:00        0.00
  135226               JUNCTION  -nan(ind)     0.00    43.29     0  00:00        0.00
  135227               JUNCTION  -nan(ind)     0.00    46.23     0  00:00        0.00
  135228               JUNCTION  -nan(ind)     0.00    46.60     0  00:00        0.00
  135700               JUNCTION  -nan(ind)     0.00    24.60     0  00:00        0.00
  135718               JUNCTION  -nan(ind)     0.00    50.44     0  00:00        0.00
  135719               JUNCTION  -nan(ind)     0.00    49.82     0  00:00        0.00
  135720               JUNCTION  -nan(ind)     0.00    48.11     0  00:00        0.00
  135721               JUNCTION  -nan(ind)     0.00    50.41     0  00:00        0.00
  135722               JUNCTION  -nan(ind)     0.00    50.41     0  00:00        0.00
  135723               JUNCTION  -nan(ind)     0.00    48.08     0  00:00        0.00
  135724               JUNCTION  -nan(ind)     0.00    48.19     0  00:00        0.00
  135725               JUNCTION  -nan(ind)     0.00    47.70     0  00:00        0.00
  135726               JUNCTION  -nan(ind)     0.00    47.39     0  00:00        0.00
  135727               JUNCTION  -nan(ind)     0.00    47.83     0  00:00        0.00
  136688               JUNCTION  -nan(ind)     0.00    45.49     0  00:00        0.00
  137337               JUNCTION  -nan(ind)     0.00    67.42     0  00:00        0.00
  137338               JUNCTION  -nan(ind)     0.00    64.80     0  00:00        0.00
  137339               JUNCTION  -nan(ind)     0.00    61.54     0  00:00        0.00
  137340               JUNCTION  -nan(ind)     0.00    60.33     0  00:00        0.00
  137341               JUNCTION  -nan(ind)     0.00    56.02     0  00:00        0.00
  137342               JUNCTION  -nan(ind)     0.00    55.70     0  00:00        0.00
  137343               JUNCTION  -nan(ind)     0.00    66.52     0  00:00        0.00
  137344               JUNCTION  -nan(ind)     0.00    63.20     0  00:00        0.00
  137345               JUNCTION  -nan(ind)     0.00    65.30     0  00:00        0.00
  137346               JUNCTION  -nan(ind)     0.00    61.00     0  00:00        0.00
  137347               JUNCTION  -nan(ind)     0.00    64.75     0  00:00        0.00
  137348               JUNCTION  -nan(ind)     0.00    64.64     0  00:00        0.00
  137349               JUNCTION  -nan(ind)     0.00     0.00     0  00:00        0.00
  137350               JUNCTION  -nan(ind)     0.00    63.10     0  00:00        0.00
  137351               JUNCTION  -nan(ind)     0.00    59.28     0  00:00        0.00
  137353               JUNCTION  -nan(ind)     0.00    57.93     0  00:00        0.00
  137354               JUNCTION  -nan(ind)     0.00    56.60     0  00:00        0.00
  137355               JUNCTION  -nan(ind)     0.00    62.00     0  00:00        0.00
  137356               JUNCTION  -nan(ind)     0.00    61.61     0  00:00        0.00
  137357               JUNCTION  -nan(ind)     0.00    58.27     0  00:00        0.00
  137358               JUNCTION  -nan(ind)     0.00    55.41     0  00:00        0.00
  137713               JUNCTION  -nan(ind)     0.00    55.42     0  00:00        0.00
  137714               JUNCTION  -nan(ind)     0.00    54.73     0  00:00        0.00
  137715               JUNCTION  -nan(ind)     0.00    54.31     0  00:00        0.00
  137716               JUNCTION  -nan(ind)     0.00    52.60     0  00:00        0.00
  16958                JUNCTION  -nan(ind)     0.00    46.70     0  00:00        0.00
  16960                JUNCTION  -nan(ind)     0.00    30.24     0  00:00        0.00
  17148                JUNCTION  -nan(ind)     0.00    23.98     0  00:00        0.00
  17150                JUNCTION  -nan(ind)     0.00    24.92     0  00:00        0.00
  17152                JUNCTION  -nan(ind)     0.00    27.03     0  00:00        0.00
  17154                JUNCTION  -nan(ind)     0.00    28.26     0  00:00        0.00
  17156                JUNCTION  -nan(ind)     0.00    30.10     0  00:00        0.00
  17158                JUNCTION  -nan(ind)     0.00    36.06     0  00:00        0.00
  17160                JUNCTION  -nan(ind)     0.00    39.34     0  00:00        0.00
  17162                JUNCTION  -nan(ind)     0.00    40.72     0  00:00        0.00
  17164                JUNCTION  -nan(ind)     0.00    27.14     0  00:00        0.00
  17166                JUNCTION  -nan(ind)     0.00    28.65     0  00:00        0.00
  17168                JUNCTION  -nan(ind)     0.00    29.01     0  00:00        0.00
  17170                JUNCTION  -nan(ind)     0.00    30.94     0  00:00        0.00
  17172                JUNCTION  -nan(ind)     0.00    28.85     0  00:00        0.00
  17174                JUNCTION  -nan(ind)     0.00    30.36     0  00:00        0.00
  17176                JUNCTION  -nan(ind)     0.00    30.58     0  00:00        0.00
  17178                JUNCTION  -nan(ind)     0.00    30.80     0  00:00        0.00
  17180                JUNCTION  -nan(ind)     0.00    32.31     0  00:00        0.00
  17182                JUNCTION  -nan(ind)     0.00    34.82     0  00:00        0.00
  17184                JUNCTION  -nan(ind)     0.00    35.84     0  00:00        0.00
  17186                JUNCTION  -nan(ind)     0.00    31.47     0  00:00        0.00
  17449                JUNCTION  -nan(ind)     0.00    43.27     0  00:00        0.00
  17451                JUNCTION  -nan(ind)     0.00    46.30     0  00:00        0.00
  17453                JUNCTION  -nan(ind)     0.00    50.02     0  00:00        0.00
  17455                JUNCTION  -nan(ind)     0.00    51.25     0  00:00        0.00
  17457                JUNCTION  -nan(ind)     0.00    51.72     0  00:00        0.00
  17459                JUNCTION  -nan(ind)     0.00    53.17     0  00:00        0.00
  17461                JUNCTION  -nan(ind)     0.00    47.25     0  00:00        0.00
  17463                JUNCTION  -nan(ind)     0.00    50.70     0  00:00        0.00
  17465                JUNCTION  -nan(ind)     0.00    43.63     0  00:00        0.00
  17467                JUNCTION  -nan(ind)     0.00    47.22     0  00:00        0.00
  17813                JUNCTION  -nan(ind)     0.00    34.08     0  00:00        0.00
  17815                JUNCTION  -nan(ind)     0.00    37.91     0  00:00        0.00
  17817                JUNCTION  -nan(ind)     0.00    38.64     0  00:00        0.00
  17819                JUNCTION  -nan(ind)     0.00    35.81     0  00:00        0.00
  17821                JUNCTION  -nan(ind)     0.00    36.90     0  00:00        0.00
  18148                JUNCTION  -nan(ind)     0.00    46.44     0  00:00        0.00
  18150                JUNCTION  -nan(ind)     0.00    47.81     0  00:00        0.00
  18152                JUNCTION  -nan(ind)     0.00    48.23     0  00:00        0.00
  18154                JUNCTION  -nan(ind)     0.00    48.65     0  00:00        0.00
  18156                JUNCTION  -nan(ind)     0.00    48.82     0  00:00        0.00
  18158                JUNCTION  -nan(ind)     0.00    49.25     0  00:00        0.00
  18160                JUNCTION  -nan(ind)     0.00    50.97     0  00:00        0.00
  18162                JUNCTION  -nan(ind)     0.00    51.56     0  00:00        0.00
  18164                JUNCTION  -nan(ind)     0.00    53.66     0  00:00        0.00
  18166                JUNCTION  -nan(ind)     0.00    53.99     0  00:00        0.00
  18168                JUNCTION  -nan(ind)     0.00    54.55     0  00:00        0.00
  18170                JUNCTION  -nan(ind)     0.00    54.90     0  00:00        0.00
  18172                JUNCTION  -nan(ind)     0.00    55.52     0  00:00        0.00
  18176                JUNCTION  -nan(ind)     0.00    55.17     0  00:00        0.00
  18178                JUNCTION  -nan(ind)     0.00    55.92     0  00:00        0.00
  18180                JUNCTION  -nan(ind)     0.00    56.29     0  00:00        0.00
  18182                JUNCTION  -nan(ind)     0.00    57.44     0  00:00        0.00
  18184                JUNCTION  -nan(ind)     0.00    60.15     0  00:00        0.00
  18186                JUNCTION  -nan(ind)     0.00    61.51     0  00:00        0.00
  18188                JUNCTION  -nan(ind)     0.00    62.98     0  00:00        0.00
  18190                JUNCTION  -nan(ind)     0.00     0.00     0  00:00        0.00
  18192                JUNCTION  -nan(ind)     0.00     0.00     0  00:00        0.00
  18194                JUNCTION  -nan(ind)     0.00     0.00     0  00:00        0.00
  18196                JUNCTION  -nan(ind)     0.00    48.56     0  00:00        0.00
  18198                JUNCTION  -nan(ind)     0.00    49.02     0  00:00        0.00
  18200                JUNCTION  -nan(ind)     0.00    49.26     0  00:00        0.00
  18202                JUNCTION  -nan(ind)     0.00    49.49     0  00:00        0.00
  18204                JUNCTION  -nan(ind)     0.00    50.50     0  00:00        0.00
  18206                JUNCTION  -nan(ind)     0.00    50.85     0  00:00        0.00
  18208                JUNCTION  -nan(ind)     0.00    51.19     0  00:00        0.00
  18210                JUNCTION  -nan(ind)     0.00    52.04     0  00:00        0.00
  18212                JUNCTION  -nan(ind)     0.00    56.40     0  00:00        0.00
  18214                JUNCTION  -nan(ind)     0.00     0.00     0  00:00        0.00
  18216                JUNCTION  -nan(ind)     0.00    50.08     0  00:00        0.00
  18218                JUNCTION  -nan(ind)     0.00    50.86     0  00:00        0.00
  18220                JUNCTION  -nan(ind)     0.00    54.25     0  00:00        0.00
  18222                JUNCTION  -nan(ind)     0.00    58.27     0  00:00        0.00
  18224                JUNCTION  -nan(ind)     0.00    59.10     0  00:00        0.00
  18226                JUNCTION  -nan(ind)     0.00     0.00     0  00:00        0.00
  18228                JUNCTION  -nan(ind)     0.00    53.42     0  00:00        0.00
  18230                JUNCTION  -nan(ind)     0.00    58.31     0  00:00        0.00
  18232                JUNCTION  -nan(ind)     0.00     0.00     0  00:00        0.00
  18316                JUNCTION  -nan(ind)     0.00    54.26     0  00:00        0.00
  18317                JUNCTION  -nan(ind)     0.00    57.79     0  00:00        0.00
  18319                JUNCTION  -nan(ind)     0.00    53.86     0  00:00        0.00
  18321                JUNCTION  -nan(ind)     0.00    54.82     0  00:00        0.00
  18323                JUNCTION  -nan(ind)     0.00    54.35     0  00:00        0.00
  18325                JUNCTION  -nan(ind)     0.00    56.37     0  00:00        0.00
  18327                JUNCTION  -nan(ind)     0.00    57.89     0  00:00        0.00
  18329                JUNCTION  -nan(ind)     0.00    54.49     0  00:00        0.00
  18331                JUNCTION  -nan(ind)     0.00    55.14     0  00:00        0.00
  18333                JUNCTION  -nan(ind)     0.00    57.30     0  00:00        0.00
  18335                JUNCTION  -nan(ind)     0.00    57.98     0  00:00        0.00
  18337                JUNCTION  -nan(ind)     0.00    58.12     0  00:00        0.00
  18339                JUNCTION  -nan(ind)     0.00    58.27     0  00:00        0.00
  18341                JUNCTION  -nan(ind)     0.00    59.88     0  00:00        0.00
  18343                JUNCTION  -nan(ind)     0.00    60.17     0  00:00        0.00
  18345                JUNCTION  -nan(ind)     0.00    60.48     0  00:00        0.00
  18357                JUNCTION  -nan(ind)     0.00    62.98     0  00:00        0.00
  18359                JUNCTION  -nan(ind)     0.00    64.59     0  00:00        0.00
  18361                JUNCTION  -nan(ind)     0.00    69.62     0  00:00        0.00
  18363                JUNCTION  -nan(ind)     0.00    64.02     0  00:00        0.00
  18825                JUNCTION  -nan(ind)     0.00    36.09     0  00:00        0.00
  18827                JUNCTION  -nan(ind)     0.00    37.68     0  00:00        0.00
  18829                JUNCTION  -nan(ind)     0.00    40.08     0  00:00        0.00
  18831                JUNCTION  -nan(ind)     0.00    43.18     0  00:00        0.00
  18917                JUNCTION  -nan(ind)     0.00    23.78     0  00:00        0.00
  18919                JUNCTION  -nan(ind)     0.00    24.50     0  00:00        0.00
  18959                JUNCTION  -nan(ind)     0.00    50.55     0  00:00        0.00
  18961                JUNCTION  -nan(ind)     0.00    51.68     0  00:00        0.00
  18963                JUNCTION  -nan(ind)     0.00    54.48     0  00:00        0.00
  18965                JUNCTION  -nan(ind)     0.00    50.40     0  00:00        0.00
  18967                JUNCTION  -nan(ind)     0.00    49.44     0  00:00        0.00
  19566                JUNCTION  -nan(ind)     0.00    57.98     0  00:00        0.00
  19568                JUNCTION  -nan(ind)     0.00    64.46     0  00:00        0.00
  19570                JUNCTION  -nan(ind)     0.00    64.74     0  00:00        0.00
  19572                JUNCTION  -nan(ind)     0.00    65.15     0  00:00        0.00
  19574                JUNCTION  -nan(ind)     0.00    60.80     0  00:00        0.00
  19578                JUNCTION  -nan(ind)     0.00    61.10     0  00:00        0.00
  19582                JUNCTION  -nan(ind)     0.00    64.56     0  00:00        0.00
  19584                JUNCTION  -nan(ind)     0.00    64.76     0  00:00        0.00
  19589                JUNCTION  -nan(ind)     0.00    59.22     0  00:00        0.00
  19665                JUNCTION  -nan(ind)     0.00    34.86     0  00:00        0.00
  19667                JUNCTION  -nan(ind)     0.00    35.28     0  00:00        0.00
  19669                JUNCTION  -nan(ind)     0.00    35.85     0  00:00        0.00
  19671                JUNCTION  -nan(ind)     0.00    36.13     0  00:00        0.00
  19673                JUNCTION  -nan(ind)     0.00    36.29     0  00:00        0.00
  19675                JUNCTION  -nan(ind)     0.00    39.19     0  00:00        0.00
  19677                JUNCTION  -nan(ind)     0.00    41.38     0  00:00        0.00
  19679                JUNCTION  -nan(ind)     0.00    42.56     0  00:00        0.00
  19681                JUNCTION  -nan(ind)     0.00    42.79     0  00:00        0.00
  19689                JUNCTION  -nan(ind)     0.00    36.51     0  00:00        0.00
  19691                JUNCTION  -nan(ind)     0.00    39.26     0  00:00        0.00
  19693                JUNCTION  -nan(ind)     0.00    43.40     0  00:00        0.00
  19695                JUNCTION  -nan(ind)     0.00    46.32     0  00:00        0.00
  19697                JUNCTION  -nan(ind)     0.00    47.01     0  00:00        0.00
  19699                JUNCTION  -nan(ind)     0.00    44.60     0  00:00        0.00
  19701                JUNCTION  -nan(ind)     0.00    46.40     0  00:00        0.00
  19703                JUNCTION  -nan(ind)     0.00    41.53     0  00:00        0.00
  19705                JUNCTION  -nan(ind)     0.00    41.97     0  00:00        0.00
  19707                JUNCTION  -nan(ind)     0.00    43.94     0  00:00        0.00
  19709                JUNCTION  -nan(ind)     0.00    45.28     0  00:00        0.00
  19711                JUNCTION  -nan(ind)     0.00    36.74     0  00:00        0.00
  19713                JUNCTION  -nan(ind)     0.00    40.21     0  00:00        0.00
  19992                JUNCTION  -nan(ind)     0.00    24.39     0  00:00        0.00
  19995                JUNCTION  -nan(ind)     0.00    24.78     0  00:00        0.00
  19998                JUNCTION  -nan(ind)     0.00    25.19     0  00:00        0.00
  20001                JUNCTION  -nan(ind)     0.00    25.53     0  00:00        0.00
  20004                JUNCTION  -nan(ind)     0.00    25.90     0  00:00        0.00
  20007                JUNCTION  -nan(ind)     0.00    26.02     0  00:00        0.00
  20010                JUNCTION  -nan(ind)     0.00    26.22     0  00:00        0.00
  20013                JUNCTION  -nan(ind)     0.00    26.59     0  00:00        0.00
  20016                JUNCTION  -nan(ind)     0.00    26.81     0  00:00        0.00
  20019                JUNCTION  -nan(ind)     0.00    28.44     0  00:00        0.00
  20022                JUNCTION  -nan(ind)     0.00    29.04     0  00:00        0.00
  20025                JUNCTION  -nan(ind)     0.00    29.42     0  00:00        0.00
  20028                JUNCTION  -nan(ind)     0.00    29.73     0  00:00        0.00
  20031                JUNCTION  -nan(ind)     0.00    29.85     0  00:00        0.00
  20034                JUNCTION  -nan(ind)     0.00    30.85     0  00:00        0.00
  20037                JUNCTION  -nan(ind)     0.00    33.33     0  00:00        0.00
  20040                JUNCTION  -nan(ind)     0.00    37.01     0  00:00        0.00
  20043                JUNCTION  -nan(ind)     0.00    38.61     0  00:00        0.00
  20046                JUNCTION  -nan(ind)     0.00    28.34     0  00:00        0.00
  20049                JUNCTION  -nan(ind)     0.00    29.78     0  00:00        0.00
  20052                JUNCTION  -nan(ind)     0.00    30.53     0  00:00        0.00
  20055                JUNCTION  -nan(ind)     0.00    31.19     0  00:00        0.00
  20058                JUNCTION  -nan(ind)     0.00    31.72     0  00:00        0.00
  20061                JUNCTION  -nan(ind)     0.00    32.10     0  00:00        0.00
  20064                JUNCTION  -nan(ind)     0.00    32.38     0  00:00        0.00
  20067                JUNCTION  -nan(ind)     0.00    32.81     0  00:00        0.00
  20070                JUNCTION  -nan(ind)     0.00    35.20     0  00:00        0.00
  20073                JUNCTION  -nan(ind)     0.00    31.42     0  00:00        0.00
  20076                JUNCTION  -nan(ind)     0.00    52.93     0  00:00        0.00
  20079                JUNCTION  -nan(ind)     0.00    54.34     0  00:00        0.00
  20082                JUNCTION  -nan(ind)     0.00    54.48     0  00:00        0.00
  20085                JUNCTION  -nan(ind)     0.00    55.09     0  00:00        0.00
  20088                JUNCTION  -nan(ind)     0.00    55.41     0  00:00        0.00
  20091                JUNCTION  -nan(ind)     0.00    56.50     0  00:00        0.00
  20094                JUNCTION  -nan(ind)     0.00    57.61     0  00:00        0.00
  20097                JUNCTION  -nan(ind)     0.00    59.38     0  00:00        0.00
  20100                JUNCTION  -nan(ind)     0.00    61.72     0  00:00        0.00
  20103                JUNCTION  -nan(ind)     0.00    63.13     0  00:00        0.00
  20106                JUNCTION  -nan(ind)     0.00    53.93     0  00:00        0.00
  20109                JUNCTION  -nan(ind)     0.00    54.82     0  00:00        0.00
  20112                JUNCTION  -nan(ind)     0.00    54.94     0  00:00        0.00
  20115                JUNCTION  -nan(ind)     0.00    55.93     0  00:00        0.00
  20118                JUNCTION  -nan(ind)     0.00    56.12     0  00:00        0.00
  20121                JUNCTION  -nan(ind)     0.00    58.83     0  00:00        0.00
  20124                JUNCTION  -nan(ind)     0.00    60.51     0  00:00        0.00
  20127                JUNCTION  -nan(ind)     0.00    61.58     0  00:00        0.00
  20130                JUNCTION  -nan(ind)     0.00    63.19     0  00:00        0.00
  20133                JUNCTION  -nan(ind)     0.00    55.01     0  00:00        0.00
  20136                JUNCTION  -nan(ind)     0.00    55.39     0  00:00        0.00
  20139                JUNCTION  -nan(ind)     0.00    46.67     0  00:00        0.00
  20142                JUNCTION  -nan(ind)     0.00    46.92     0  00:00        0.00
  20145                JUNCTION  -nan(ind)     0.00    47.43     0  00:00        0.00
  20148                JUNCTION  -nan(ind)     0.00    48.00     0  00:00        0.00
  20151                JUNCTION  -nan(ind)     0.00    49.63     0  00:00        0.00
  20154                JUNCTION  -nan(ind)     0.00    50.51     0  00:00        0.00
  20157                JUNCTION  -nan(ind)     0.00    52.52     0  00:00        0.00
  20160                JUNCTION  -nan(ind)     0.00    54.22     0  00:00        0.00
  20163                JUNCTION  -nan(ind)     0.00    54.48     0  00:00        0.00
  20166                JUNCTION  -nan(ind)     0.00    54.81     0  00:00        0.00
  20169                JUNCTION  -nan(ind)     0.00    50.75     0  00:00        0.00
  20172                JUNCTION  -nan(ind)     0.00    51.33     0  00:00        0.00
  20175                JUNCTION  -nan(ind)     0.00    52.62     0  00:00        0.00
  20178                JUNCTION  -nan(ind)     0.00    55.42     0  00:00        0.00
  20181                JUNCTION  -nan(ind)     0.00    57.68     0  00:00        0.00
  20184                JUNCTION  -nan(ind)     0.00    54.11     0  00:00        0.00
  20187                JUNCTION  -nan(ind)     0.00    55.80     0  00:00        0.00
  20190                JUNCTION  -nan(ind)     0.00    55.16     0  00:00        0.00
  20193                JUNCTION  -nan(ind)     0.00    56.88     0  00:00        0.00
  20196                JUNCTION  -nan(ind)     0.00    53.08     0  00:00        0.00
  20259                JUNCTION  -nan(ind)     0.00    25.15     0  00:00        0.00
  20261                JUNCTION  -nan(ind)     0.00     0.00     0  00:00        0.00
  20276                JUNCTION  -nan(ind)     0.00    55.70     0  00:00        0.00
  20279                JUNCTION  -nan(ind)     0.00    55.70     0  00:00        0.00
  20282                JUNCTION  -nan(ind)     0.00    55.95     0  00:00        0.00
  20285                JUNCTION  -nan(ind)     0.00    57.01     0  00:00        0.00
  20288                JUNCTION  -nan(ind)     0.00    57.72     0  00:00        0.00
  20291                JUNCTION  -nan(ind)     0.00    59.53     0  00:00        0.00
  20294                JUNCTION  -nan(ind)     0.00    61.22     0  00:00        0.00
  20297                JUNCTION  -nan(ind)     0.00     0.00     0  00:00        0.00
  20300                JUNCTION  -nan(ind)     0.00    55.99     0  00:00        0.00
  20303                JUNCTION  -nan(ind)     0.00    58.26     0  00:00        0.00
  20306                JUNCTION  -nan(ind)     0.00    57.55     0  00:00        0.00
  20309                JUNCTION  -nan(ind)     0.00    57.90     0  00:00        0.00
  20312                JUNCTION  -nan(ind)     0.00    58.15     0  00:00        0.00
  20315                JUNCTION  -nan(ind)     0.00    59.16     0  00:00        0.00
  20318                JUNCTION  -nan(ind)     0.00    60.83     0  00:00        0.00
  20321                JUNCTION  -nan(ind)     0.00    58.51     0  00:00        0.00
  20324                JUNCTION  -nan(ind)     0.00    60.72     0  00:00        0.00
  20327                JUNCTION  -nan(ind)     0.00    61.09     0  00:00        0.00
  20328                JUNCTION  -nan(ind)     0.00    50.56     0  00:00        0.00
  20331                JUNCTION  -nan(ind)     0.00    26.93     0  00:00        0.00
  20334                JUNCTION  -nan(ind)     0.00    27.46     0  00:00        0.00
  20337                JUNCTION  -nan(ind)     0.00    27.85     0  00:00        0.00
  20340                JUNCTION  -nan(ind)     0.00    28.13     0  00:00        0.00
  20343                JUNCTION  -nan(ind)     0.00    28.25     0  00:00        0.00
  20346                JUNCTION  -nan(ind)     0.00    28.79     0  00:00        0.00
  20349                JUNCTION  -nan(ind)     0.00    29.75     0  00:00        0.00
  20352                JUNCTION  -nan(ind)     0.00    30.71     0  00:00        0.00
  20355                JUNCTION  -nan(ind)     0.00    27.13     0  00:00        0.00
  20358                JUNCTION  -nan(ind)     0.00    27.58     0  00:00        0.00
  20361                JUNCTION  -nan(ind)     0.00    28.10     0  00:00        0.00
  20364                JUNCTION  -nan(ind)     0.00    28.18     0  00:00        0.00
  20367                JUNCTION  -nan(ind)     0.00    28.39     0  00:00        0.00
  20370                JUNCTION  -nan(ind)     0.00    29.18     0  00:00        0.00
  20373                JUNCTION  -nan(ind)     0.00    29.40     0  00:00        0.00
  20376                JUNCTION  -nan(ind)     0.00    27.47     0  00:00        0.00
  20379                JUNCTION  -nan(ind)     0.00    28.43     0  00:00        0.00
  20382                JUNCTION  -nan(ind)     0.00    27.98     0  00:00        0.00
  20385                JUNCTION  -nan(ind)     0.00     0.00     0  00:00        0.00
  20388                JUNCTION  -nan(ind)     0.00    28.45     0  00:00        0.00
  20391                JUNCTION  -nan(ind)     0.00    28.73     0  00:00        0.00
  20394                JUNCTION  -nan(ind)     0.00    27.95     0  00:00        0.00
  20397                JUNCTION  -nan(ind)     0.00    28.25     0  00:00        0.00
  20400                JUNCTION  -nan(ind)     0.00    26.63     0  00:00        0.00
  20403                JUNCTION  -nan(ind)     0.00    27.12     0  00:00        0.00
  20406                JUNCTION  -nan(ind)     0.00    27.60     0  00:00        0.00
  20409                JUNCTION  -nan(ind)     0.00    28.11     0  00:00        0.00
  20412                JUNCTION  -nan(ind)     0.00    28.70     0  00:00        0.00
  20417                JUNCTION  -nan(ind)     0.00    47.70     0  00:00        0.00
  20420                JUNCTION  -nan(ind)     0.00    47.62     0  00:00        0.00
  6635                 JUNCTION  -nan(ind)     0.00    27.46     0  00:00        0.00
  6636                 JUNCTION  -nan(ind)     0.00    27.74     0  00:00        0.00
  6637                 JUNCTION  -nan(ind)     0.00    27.93     0  00:00        0.00
  6638                 JUNCTION  -nan(ind)     0.00    28.25     0  00:00        0.00
  6639                 JUNCTION  -nan(ind)     0.00    29.52     0  00:00        0.00
  6640                 JUNCTION  -nan(ind)     0.00    30.85     0  00:00        0.00
  6641                 JUNCTION  -nan(ind)     0.00    32.07     0  00:00        0.00
  6642                 JUNCTION  -nan(ind)     0.00    32.74     0  00:00        0.00
  6643                 JUNCTION  -nan(ind)     0.00    37.84     0  00:00        0.00
  6646                 JUNCTION  -nan(ind)     0.00    43.44     0  00:00        0.00
  6651                 JUNCTION  -nan(ind)     0.00    51.86     0  00:00        0.00
  6652                 JUNCTION  -nan(ind)     0.00    55.33     0  00:00        0.00
  6653                 JUNCTION  -nan(ind)     0.00    59.25     0  00:00        0.00
  6654                 JUNCTION  -nan(ind)     0.00    59.70     0  00:00        0.00
  6655                 JUNCTION  -nan(ind)     0.00    66.21     0  00:00        0.00
  6656                 JUNCTION  -nan(ind)     0.00    72.89     0  00:00        0.00
  6657                 JUNCTION  -nan(ind)     0.00    73.89     0  00:00        0.00
  6658                 JUNCTION  -nan(ind)     0.00    28.24     0  00:00        0.00
  6659                 JUNCTION  -nan(ind)     0.00    28.57     0  00:00        0.00
  6660                 JUNCTION  -nan(ind)     0.00    28.88     0  00:00        0.00
  6661                 JUNCTION  -nan(ind)     0.00    29.43     0  00:00        0.00
  6662                 JUNCTION  -nan(ind)     0.00    30.88     0  00:00        0.00
  6663                 JUNCTION  -nan(ind)     0.00    33.10     0  00:00        0.00
  6664                 JUNCTION  -nan(ind)     0.00    35.79     0  00:00        0.00
  6665                 JUNCTION  -nan(ind)     0.00    39.14     0  00:00        0.00
  6666                 JUNCTION  -nan(ind)     0.00    39.99     0  00:00        0.00
  6667                 JUNCTION  -nan(ind)     0.00    40.61     0  00:00        0.00
  6668                 JUNCTION  -nan(ind)     0.00    41.96     0  00:00        0.00
  6669                 JUNCTION  -nan(ind)     0.00    42.13     0  00:00        0.00
  6670                 JUNCTION  -nan(ind)     0.00    47.75     0  00:00        0.00
  6671                 JUNCTION  -nan(ind)     0.00    49.62     0  00:00        0.00
  6672                 JUNCTION  -nan(ind)     0.00    52.65     0  00:00        0.00
  6673                 JUNCTION  -nan(ind)     0.00    58.28     0  00:00        0.00
  6675                 JUNCTION  -nan(ind)     0.00    45.85     0  00:00        0.00
  6676                 JUNCTION  -nan(ind)     0.00    45.32     0  00:00        0.00
  6677                 JUNCTION  -nan(ind)     0.00    47.24     0  00:00        0.00
  6678                 JUNCTION  -nan(ind)     0.00    49.28     0  00:00        0.00
  6679                 JUNCTION  -nan(ind)     0.00    49.83     0  00:00        0.00
  6680                 JUNCTION  -nan(ind)     0.00    53.65     0  00:00        0.00
  6681                 JUNCTION  -nan(ind)     0.00    55.05     0  00:00        0.00
  6682                 JUNCTION  -nan(ind)     0.00    58.54     0  00:00        0.00
  6683                 JUNCTION  -nan(ind)     0.00    59.74     0  00:00        0.00
  6684                 JUNCTION  -nan(ind)     0.00    61.67     0  00:00        0.00
  6685                 JUNCTION  -nan(ind)     0.00    70.13     0  00:00        0.00
  6687                 JUNCTION  -nan(ind)     0.00    51.31     0  00:00        0.00
  6688                 JUNCTION  -nan(ind)     0.00    53.08     0  00:00        0.00
  6689                 JUNCTION  -nan(ind)     0.00    55.78     0  00:00        0.00
  6690                 JUNCTION  -nan(ind)     0.00    58.52     0  00:00        0.00
  6691                 JUNCTION  -nan(ind)     0.00    62.12     0  00:00        0.00
  6692                 JUNCTION  -nan(ind)     0.00    68.92     0  00:00        0.00
  6693                 JUNCTION  -nan(ind)     0.00    54.74     0  00:00        0.00
  6694                 JUNCTION  -nan(ind)     0.00    57.23     0  00:00        0.00
  6695                 JUNCTION  -nan(ind)     0.00    60.97     0  00:00        0.00
  6696                 JUNCTION  -nan(ind)     0.00    61.62     0  00:00        0.00
  6697                 JUNCTION  -nan(ind)     0.00    67.94     0  00:00        0.00
  6698                 JUNCTION  -nan(ind)     0.00    43.60     0  00:00        0.00
  6699                 JUNCTION  -nan(ind)     0.00    46.29     0  00:00        0.00
  6700                 JUNCTION  -nan(ind)     0.00    48.49     0  00:00        0.00
  6701                 JUNCTION  -nan(ind)     0.00    51.80     0  00:00        0.00
  6702                 JUNCTION  -nan(ind)     0.00    30.24     0  00:00        0.00
  6703                 JUNCTION  -nan(ind)     0.00    32.21     0  00:00        0.00
  6704                 JUNCTION  -nan(ind)     0.00    35.88     0  00:00        0.00
  6705                 JUNCTION  -nan(ind)     0.00    40.64     0  00:00        0.00
  6706                 JUNCTION  -nan(ind)     0.00    40.79     0  00:00        0.00
  6707                 JUNCTION  -nan(ind)     0.00    35.67     0  00:00        0.00
  6708                 JUNCTION  -nan(ind)     0.00    36.30     0  00:00        0.00
  6709                 JUNCTION  -nan(ind)     0.00    36.48     0  00:00        0.00
  6710                 JUNCTION  -nan(ind)     0.00    50.75     0  00:00        0.00
  6711                 JUNCTION  -nan(ind)     0.00    52.32     0  00:00        0.00
  6712                 JUNCTION  -nan(ind)     0.00    58.04     0  00:00        0.00
  6713                 JUNCTION  -nan(ind)     0.00    64.40     0  00:00        0.00
  6714                 JUNCTION  -nan(ind)     0.00    69.78     0  00:00        0.00
  6715                 JUNCTION  -nan(ind)     0.00    36.35     0  00:00        0.00
  6716                 JUNCTION  -nan(ind)     0.00    34.70     0  00:00        0.00
  6717                 JUNCTION  -nan(ind)     0.00    45.31     0  00:00        0.00
  6718                 JUNCTION  -nan(ind)     0.00    51.72     0  00:00        0.00
  6719                 JUNCTION  -nan(ind)     0.00    52.16     0  00:00        0.00
  6720                 JUNCTION  -nan(ind)     0.00    59.05     0  00:00        0.00
  6721                 JUNCTION  -nan(ind)     0.00    58.40     0  00:00        0.00
  6722                 JUNCTION  -nan(ind)     0.00    33.57     0  00:00        0.00
  6723                 JUNCTION  -nan(ind)     0.00    69.79     0  00:00        0.00
  6724                 JUNCTION  -nan(ind)     0.00    47.79     0  00:00        0.00
  6725                 JUNCTION  -nan(ind)     0.00    48.11     0  00:00        0.00
  6726                 JUNCTION  -nan(ind)     0.00    48.62     0  00:00        0.00
  6727                 JUNCTION  -nan(ind)     0.00    50.38     0  00:00        0.00
  6728                 JUNCTION  -nan(ind)     0.00    50.53     0  00:00        0.00
  6729                 JUNCTION  -nan(ind)     0.00    52.03     0  00:00        0.00
  6730                 JUNCTION  -nan(ind)     0.00    52.29     0  00:00        0.00
  6731                 JUNCTION  -nan(ind)     0.00    52.55     0  00:00        0.00
  6732                 JUNCTION  -nan(ind)     0.00    54.81     0  00:00        0.00
  6733                 JUNCTION  -nan(ind)     0.00    54.92     0  00:00        0.00
  6734                 JUNCTION  -nan(ind)     0.00    53.19     0  00:00        0.00
  6735                 JUNCTION  -nan(ind)     0.00    54.45     0  00:00        0.00
  6736                 JUNCTION  -nan(ind)     0.00    53.40     0  00:00        0.00
  6737                 JUNCTION  -nan(ind)     0.00    53.94     0  00:00        0.00
  6738                 JUNCTION  -nan(ind)     0.00    27.10     0  00:00        0.00
  6739                 JUNCTION  -nan(ind)     0.00    31.50     0  00:00        0.00
  6740                 JUNCTION  -nan(ind)     0.00    32.33     0  00:00        0.00
  6741                 JUNCTION  -nan(ind)     0.00    32.67     0  00:00        0.00
  6742                 JUNCTION  -nan(ind)     0.00    32.79     0  00:00        0.00
  6743                 JUNCTION  -nan(ind)     0.00    33.09     0  00:00        0.00
  6744                 JUNCTION  -nan(ind)     0.00    38.52     0  00:00        0.00
  6745                 JUNCTION  -nan(ind)     0.00    39.43     0  00:00        0.00
  6746                 JUNCTION  -nan(ind)     0.00    41.11     0  00:00        0.00
  6747                 JUNCTION  -nan(ind)     0.00    41.65     0  00:00        0.00
  6748                 JUNCTION  -nan(ind)     0.00    41.91     0  00:00        0.00
  6749                 JUNCTION  -nan(ind)     0.00    42.04     0  00:00        0.00
  6750                 JUNCTION  -nan(ind)     0.00    42.72     0  00:00        0.00
  6751                 JUNCTION  -nan(ind)     0.00    43.11     0  00:00        0.00
  6752                 JUNCTION  -nan(ind)     0.00    44.26     0  00:00        0.00
  6754                 JUNCTION  -nan(ind)     0.00    58.02     0  00:00        0.00
  6755                 JUNCTION  -nan(ind)     0.00    27.53     0  00:00        0.00
  6756                 JUNCTION  -nan(ind)     0.00    27.71     0  00:00        0.00
  6757                 JUNCTION  -nan(ind)     0.00    28.77     0  00:00        0.00
  6758                 JUNCTION  -nan(ind)     0.00    30.01     0  00:00        0.00
  6759                 JUNCTION  -nan(ind)     0.00    31.23     0  00:00        0.00
  6760                 JUNCTION  -nan(ind)     0.00    33.15     0  00:00        0.00
  6761                 JUNCTION  -nan(ind)     0.00    33.36     0  00:00        0.00
  6762                 JUNCTION  -nan(ind)     0.00    34.78     0  00:00        0.00
  6763                 JUNCTION  -nan(ind)     0.00    36.68     0  00:00        0.00
  6764                 JUNCTION  -nan(ind)     0.00    40.30     0  00:00        0.00
  6765                 JUNCTION  -nan(ind)     0.00    29.04     0  00:00        0.00
  6766                 JUNCTION  -nan(ind)     0.00    29.11     0  00:00        0.00
  6767                 JUNCTION  -nan(ind)     0.00    29.86     0  00:00        0.00
  6768                 JUNCTION  -nan(ind)     0.00    30.80     0  00:00        0.00
  6769                 JUNCTION  -nan(ind)     0.00    31.09     0  00:00        0.00
  6770                 JUNCTION  -nan(ind)     0.00    31.39     0  00:00        0.00
  6771                 JUNCTION  -nan(ind)     0.00    33.37     0  00:00        0.00
  6772                 JUNCTION  -nan(ind)     0.00    34.16     0  00:00        0.00
  6773                 JUNCTION  -nan(ind)     0.00    34.32     0  00:00        0.00
  6774                 JUNCTION  -nan(ind)     0.00    34.49     0  00:00        0.00
  6775                 JUNCTION  -nan(ind)     0.00    34.91     0  00:00        0.00
  6776                 JUNCTION  -nan(ind)     0.00    35.31     0  00:00        0.00
  6777                 JUNCTION  -nan(ind)     0.00    35.55     0  00:00        0.00
  6778                 JUNCTION  -nan(ind)     0.00    35.70     0  00:00        0.00
  6779                 JUNCTION  -nan(ind)     0.00    33.40     0  00:00        0.00
  6780                 JUNCTION  -nan(ind)     0.00    33.81     0  00:00        0.00
  6781                 JUNCTION  -nan(ind)     0.00    31.69     0  00:00        0.00
  6782                 JUNCTION  -nan(ind)     0.00    28.11     0  00:00        0.00
  6783                 JUNCTION  -nan(ind)     0.00    30.06     0  00:00        0.00
  6784                 JUNCTION  -nan(ind)     0.00    32.07     0  00:00        0.00
  6785                 JUNCTION  -nan(ind)     0.00    30.51     0  00:00        0.00
  6786                 JUNCTION  -nan(ind)     0.00    34.48     0  00:00        0.00
  6787                 JUNCTION  -nan(ind)     0.00    37.75     0  00:00        0.00
  6788                 JUNCTION  -nan(ind)     0.00    33.03     0  00:00        0.00
  6789                 JUNCTION  -nan(ind)     0.00    46.31     0  00:00        0.00
  6790                 JUNCTION  -nan(ind)     0.00    47.62     0  00:00        0.00
  6794                 JUNCTION  -nan(ind)     0.00    57.25     0  00:00        0.00
  6795                 JUNCTION  -nan(ind)     0.00    58.51     0  00:00        0.00
  6796                 JUNCTION  -nan(ind)     0.00    57.36     0  00:00        0.00
  6797                 JUNCTION  -nan(ind)     0.00    59.93     0  00:00        0.00
  6798                 JUNCTION  -nan(ind)     0.00    61.18     0  00:00        0.00
  6799                 JUNCTION  -nan(ind)     0.00    61.60     0  00:00        0.00
  6800                 JUNCTION  -nan(ind)     0.00    64.40     0  00:00        0.00
  6801                 JUNCTION  -nan(ind)     0.00    65.40     0  00:00        0.00
  6802                 JUNCTION  -nan(ind)     0.00    67.70     0  00:00        0.00
  6803                 JUNCTION  -nan(ind)     0.00    68.09     0  00:00        0.00
  6804                 JUNCTION  -nan(ind)     0.00    69.44     0  00:00        0.00
  6805                 JUNCTION  -nan(ind)     0.00    72.14     0  00:00        0.00
  6806                 JUNCTION  -nan(ind)     0.00    75.08     0  00:00        0.00
  6807                 JUNCTION  -nan(ind)     0.00    76.23     0  00:00        0.00
  6809                 JUNCTION  -nan(ind)     0.00    56.05     0  00:00        0.00
  6810                 JUNCTION  -nan(ind)     0.00    56.39     0  00:00        0.00
  6811                 JUNCTION  -nan(ind)     0.00    56.66     0  00:00        0.00
  6812                 JUNCTION  -nan(ind)     0.00    57.20     0  00:00        0.00
  6813                 JUNCTION  -nan(ind)     0.00    59.24     0  00:00        0.00
  6814                 JUNCTION  -nan(ind)     0.00    59.40     0  00:00        0.00
  6815                 JUNCTION  -nan(ind)     0.00    61.20     0  00:00        0.00
  6816                 JUNCTION  -nan(ind)     0.00    62.73     0  00:00        0.00
  6817                 JUNCTION  -nan(ind)     0.00    63.54     0  00:00        0.00
  6818                 JUNCTION  -nan(ind)     0.00    63.83     0  00:00        0.00
  6819                 JUNCTION  -nan(ind)     0.00    68.31     0  00:00        0.00
  6820                 JUNCTION  -nan(ind)     0.00    58.83     0  00:00        0.00
  6821                 JUNCTION  -nan(ind)     0.00    60.06     0  00:00        0.00
  6822                 JUNCTION  -nan(ind)     0.00    61.05     0  00:00        0.00
  6823                 JUNCTION  -nan(ind)     0.00    61.31     0  00:00        0.00
  6824                 JUNCTION  -nan(ind)     0.00    63.50     0  00:00        0.00
  6825                 JUNCTION  -nan(ind)     0.00    66.50     0  00:00        0.00
  6826                 JUNCTION  -nan(ind)     0.00    68.20     0  00:00        0.00
  6827                 JUNCTION  -nan(ind)     0.00    59.60     0  00:00        0.00
  6828                 JUNCTION  -nan(ind)     0.00    61.88     0  00:00        0.00
  6829                 JUNCTION  -nan(ind)     0.00    62.08     0  00:00        0.00
  6830                 JUNCTION  -nan(ind)     0.00    63.46     0  00:00        0.00
  6831                 JUNCTION  -nan(ind)     0.00    64.62     0  00:00        0.00
  6832                 JUNCTION  -nan(ind)     0.00    65.22     0  00:00        0.00
  6833                 JUNCTION  -nan(ind)     0.00    68.53     0  00:00        0.00
  6834                 JUNCTION  -nan(ind)     0.00    62.35     0  00:00        0.00
  6835                 JUNCTION  -nan(ind)     0.00    62.64     0  00:00        0.00
  6836                 JUNCTION  -nan(ind)     0.00    62.93     0  00:00        0.00
  6837                 JUNCTION  -nan(ind)     0.00    63.35     0  00:00        0.00
  6838                 JUNCTION  -nan(ind)     0.00    64.99     0  00:00        0.00
  6839                 JUNCTION  -nan(ind)     0.00    67.58     0  00:00        0.00
  6841                 JUNCTION  -nan(ind)     0.00    60.90     0  00:00        0.00
  6842                 JUNCTION  -nan(ind)     0.00    62.15     0  00:00        0.00
  6843                 JUNCTION  -nan(ind)     0.00    62.85     0  00:00        0.00
  6844                 JUNCTION  -nan(ind)     0.00    64.35     0  00:00        0.00
  6845                 JUNCTION  -nan(ind)     0.00    68.80     0  00:00        0.00
  6846                 JUNCTION  -nan(ind)     0.00    63.03     0  00:00        0.00
  6847                 JUNCTION  -nan(ind)     0.00    68.35     0  00:00        0.00
  6848                 JUNCTION  -nan(ind)     0.00    68.57     0  00:00        0.00
  6849                 JUNCTION  -nan(ind)     0.00    68.70     0  00:00        0.00
  6850                 JUNCTION  -nan(ind)     0.00    68.98     0  00:00        0.00
  6851                 JUNCTION  -nan(ind)     0.00    69.24     0  00:00        0.00
  6852                 JUNCTION  -nan(ind)     0.00    69.41     0  00:00        0.00
  6853                 JUNCTION  -nan(ind)     0.00    69.73     0  00:00        0.00
  6854                 JUNCTION  -nan(ind)     0.00    70.62     0  00:00        0.00
  6855                 JUNCTION  -nan(ind)     0.00    72.69     0  00:00        0.00
  6856                 JUNCTION  -nan(ind)     0.00    73.47     0  00:00        0.00
  6857                 JUNCTION  -nan(ind)     0.00    74.94     0  00:00        0.00
  6858                 JUNCTION  -nan(ind)     0.00    61.65     0  00:00        0.00
  6859                 JUNCTION  -nan(ind)     0.00    63.62     0  00:00        0.00
  6860                 JUNCTION  -nan(ind)     0.00    63.86     0  00:00        0.00
  6861                 JUNCTION  -nan(ind)     0.00    67.00     0  00:00        0.00
  6862                 JUNCTION  -nan(ind)     0.00    57.90     0  00:00        0.00
  6863                 JUNCTION  -nan(ind)     0.00    58.43     0  00:00        0.00
  6864                 JUNCTION  -nan(ind)     0.00    61.17     0  00:00        0.00
  6865                 JUNCTION  -nan(ind)     0.00    61.98     0  00:00        0.00
  6866                 JUNCTION  -nan(ind)     0.00    62.46     0  00:00        0.00
  6867                 JUNCTION  -nan(ind)     0.00    63.80     0  00:00        0.00
  6868                 JUNCTION  -nan(ind)     0.00    62.55     0  00:00        0.00
  6869                 JUNCTION  -nan(ind)     0.00    65.10     0  00:00        0.00
  6870                 JUNCTION  -nan(ind)     0.00    70.50     0  00:00        0.00
  6871                 JUNCTION  -nan(ind)     0.00    71.00     0  00:00        0.00
  6872                 JUNCTION  -nan(ind)     0.00    67.30     0  00:00        0.00
  6873                 JUNCTION  -nan(ind)     0.00    64.85     0  00:00        0.00
  6874                 JUNCTION  -nan(ind)     0.00    69.03     0  00:00        0.00
  6875                 JUNCTION  -nan(ind)     0.00    69.29     0  00:00        0.00
  6876                 JUNCTION  -nan(ind)     0.00     0.00     0  00:00        0.00
  6877                 JUNCTION  -nan(ind)     0.00    64.53     0  00:00        0.00
  6878                 JUNCTION  -nan(ind)     0.00    66.75     0  00:00        0.00
  6879                 JUNCTION  -nan(ind)     0.00    69.39     0  00:00        0.00
  6880                 JUNCTION  -nan(ind)     0.00    70.68     0  00:00        0.00
  6881                 JUNCTION  -nan(ind)     0.00    72.94     0  00:00        0.00
  6882                 JUNCTION  -nan(ind)     0.00    59.18     0  00:00        0.00
  6883                 JUNCTION  -nan(ind)     0.00    61.42     0  00:00        0.00
  6884                 JUNCTION  -nan(ind)     0.00    61.92     0  00:00        0.00
  6885                 JUNCTION  -nan(ind)     0.00    62.17     0  00:00        0.00
  6886                 JUNCTION  -nan(ind)     0.00    64.60     0  00:00        0.00
  6887                 JUNCTION  -nan(ind)     0.00    65.47     0  00:00        0.00
  6888                 JUNCTION  -nan(ind)     0.00    67.54     0  00:00        0.00
  6889                 JUNCTION  -nan(ind)     0.00    68.53     0  00:00        0.00
  6890                 JUNCTION  -nan(ind)     0.00    60.57     0  00:00        0.00
  6891                 JUNCTION  -nan(ind)     0.00    62.91     0  00:00        0.00
  6892                 JUNCTION  -nan(ind)     0.00    23.56     0  00:00        0.00
  6893                 JUNCTION  -nan(ind)     0.00    23.81     0  00:00        0.00
  6894                 JUNCTION  -nan(ind)     0.00    24.16     0  00:00        0.00
  6895                 JUNCTION  -nan(ind)     0.00    24.49     0  00:00        0.00
  6896                 JUNCTION  -nan(ind)     0.00    24.68     0  00:00        0.00
  6897                 JUNCTION  -nan(ind)     0.00    25.13     0  00:00        0.00
  6898                 JUNCTION  -nan(ind)     0.00    25.77     0  00:00        0.00
  6899                 JUNCTION  -nan(ind)     0.00    31.57     0  00:00        0.00
  6900                 JUNCTION  -nan(ind)     0.00    34.95     0  00:00        0.00
  6901                 JUNCTION  -nan(ind)     0.00    35.51     0  00:00        0.00
  6902                 JUNCTION  -nan(ind)     0.00    23.71     0  00:00        0.00
  6903                 JUNCTION  -nan(ind)     0.00    24.87     0  00:00        0.00
  6904                 JUNCTION  -nan(ind)     0.00    26.81     0  00:00        0.00
  6905                 JUNCTION  -nan(ind)     0.00    29.54     0  00:00        0.00
  6906                 JUNCTION  -nan(ind)     0.00    33.52     0  00:00        0.00
  6907                 JUNCTION  -nan(ind)     0.00    37.12     0  00:00        0.00
  6909                 JUNCTION  -nan(ind)     0.00    24.55     0  00:00        0.00
  6910                 JUNCTION  -nan(ind)     0.00    25.68     0  00:00        0.00
  6911                 JUNCTION  -nan(ind)     0.00    26.41     0  00:00        0.00
  6912                 JUNCTION  -nan(ind)     0.00    26.60     0  00:00        0.00
  6913                 JUNCTION  -nan(ind)     0.00    26.78     0  00:00        0.00
  6914                 JUNCTION  -nan(ind)     0.00    26.92     0  00:00        0.00
  6915                 JUNCTION  -nan(ind)     0.00    27.18     0  00:00        0.00
  6916                 JUNCTION  -nan(ind)     0.00    27.47     0  00:00        0.00
  6917                 JUNCTION  -nan(ind)     0.00    30.04     0  00:00        0.00
  6918                 JUNCTION  -nan(ind)     0.00    30.24     0  00:00        0.00
  6919                 JUNCTION  -nan(ind)     0.00    30.03     0  00:00        0.00
  6920                 JUNCTION  -nan(ind)     0.00    31.67     0  00:00        0.00
  6921                 JUNCTION  -nan(ind)     0.00    29.02     0  00:00        0.00
  6922                 JUNCTION  -nan(ind)     0.00    29.52     0  00:00        0.00
  6923                 JUNCTION  -nan(ind)     0.00    32.45     0  00:00        0.00
  6924                 JUNCTION  -nan(ind)     0.00    32.95     0  00:00        0.00
  6925                 JUNCTION  -nan(ind)     0.00    32.47     0  00:00        0.00
  6926                 JUNCTION  -nan(ind)     0.00    35.41     0  00:00        0.00
  6927                 JUNCTION  -nan(ind)     0.00    25.97     0  00:00        0.00
  6928                 JUNCTION  -nan(ind)     0.00    29.08     0  00:00        0.00
  6929                 JUNCTION  -nan(ind)     0.00    24.98     0  00:00        0.00
  6930                 JUNCTION  -nan(ind)     0.00    27.90     0  00:00        0.00
  6931                 JUNCTION  -nan(ind)     0.00    27.02     0  00:00        0.00
  6932                 JUNCTION  -nan(ind)     0.00    27.48     0  00:00        0.00
  JCT-10               JUNCTION  -nan(ind)     0.00    46.84     0  00:00        0.00
  JCT-104              JUNCTION  -nan(ind)     0.00     0.00     0  00:00        0.00
  JCT-118              JUNCTION  -nan(ind)     0.00     0.00     0  00:00        0.00
  JCT-12               JUNCTION  -nan(ind)     0.00    41.42     0  00:00        0.00
  JCT-120              JUNCTION  -nan(ind)     0.00     0.00     0  00:00        0.00
  JCT-122              JUNCTION  -nan(ind)     0.00     0.00     0  00:00        0.00
  JCT-124              JUNCTION  -nan(ind)     0.00     0.00     0  00:00        0.00
  JCT-126              JUNCTION  -nan(ind)     0.00     0.00     0  00:00        0.00
  JCT-128              JUNCTION  -nan(ind)     0.00     0.00     0  00:00        0.00
  JCT-130              JUNCTION  -nan(ind)     0.00     0.00     0  00:00        0.00
  JCT-132              JUNCTION  -nan(ind)     0.00     0.00     0  00:00        0.00
  JCT-134              JUNCTION  -nan(ind)     0.00     0.00     0  00:00        0.00
  JCT-138              JUNCTION  -nan(ind)     0.00    55.96     0  00:00        0.00
  JCT-14               JUNCTION  -nan(ind)     0.00    27.46     0  00:00        0.00
  JCT-142              JUNCTION  -nan(ind)     0.00    59.97     0  00:00        0.00
  JCT-144              JUNCTION  -nan(ind)     0.00    27.96     0  00:00        0.00
  JCT-146              JUNCTION  -nan(ind)     0.00    42.50     0  00:00        0.00
  JCT-18               JUNCTION  -nan(ind)     0.00     0.00     0  00:00        0.00
  JCT-20               JUNCTION  -nan(ind)     0.00     0.00     0  00:00        0.00
  JCT-22               JUNCTION  -nan(ind)     0.00     0.00     0  00:00        0.00
  JCT-24               JUNCTION  -nan(ind)     0.00     0.00     0  00:00        0.00
  JCT-26               JUNCTION  -nan(ind)     0.00     0.00     0  00:00        0.00
  JCT-28               JUNCTION  -nan(ind)     0.00     0.00     0  00:00        0.00
  JCT-30               JUNCTION  -nan(ind)     0.00    61.79     0  00:00        0.00
  JCT-32               JUNCTION  -nan(ind)     0.00     0.00     0  00:00        0.00
  JCT-34               JUNCTION  -nan(ind)     0.00     0.00     0  00:00        0.00
  JCT-36               JUNCTION  -nan(ind)     0.00     0.00     0  00:00        0.00
  JCT-38               JUNCTION  -nan(ind)     0.00     0.00     0  00:00        0.00
  JCT-40               JUNCTION  -nan(ind)     0.00     0.00     0  00:00        0.00
  JCT-42               JUNCTION  -nan(ind)     0.00     0.00     0  00:00        0.00
  JCT-44               JUNCTION  -nan(ind)     0.00     0.00     0  00:00        0.00
  JCT-46               JUNCTION  -nan(ind)     0.00    24.33     0  00:00        0.00
  JCT-50               JUNCTION  -nan(ind)     0.00     0.00     0  00:00        0.00
  JCT-52               JUNCTION  -nan(ind)     0.00     0.00     0  00:00        0.00
  JCT-54               JUNCTION  -nan(ind)     0.00     0.00     0  00:00        0.00
  JCT-56               JUNCTION  -nan(ind)     0.00     0.00     0  00:00        0.00
  JCT-58               JUNCTION  -nan(ind)     0.00     0.00     0  00:00        0.00
  JCT-60               JUNCTION  -nan(ind)     0.00     0.00     0  00:00        0.00
  JCT-62               JUNCTION  -nan(ind)     0.00     0.00     0  00:00        0.00
  JCT-64               JUNCTION  -nan(ind)     0.00     0.00     0  00:00        0.00
  JCT-66               JUNCTION  -nan(ind)     0.00     0.00     0  00:00        0.00
  JCT-68               JUNCTION  -nan(ind)     0.00     0.00     0  00:00        0.00
  JCT-70               JUNCTION  -nan(ind)     0.00     0.00     0  00:00        0.00
  JCT-72               JUNCTION  -nan(ind)     0.00    70.35     0  00:00        0.00
  JCT-74               JUNCTION  -nan(ind)     0.00    73.59     0  00:00        0.00
  JCT-80               JUNCTION  -nan(ind)     0.00    68.24     0  00:00        0.00
  JCT-82               JUNCTION  -nan(ind)     0.00     0.00     0  00:00        0.00
  JCT-84               JUNCTION  -nan(ind)     0.00     0.00     0  00:00        0.00
  JCT-86               JUNCTION  -nan(ind)     0.00     0.00     0  00:00        0.00
  JCT-88               JUNCTION  -nan(ind)     0.00     0.00     0  00:00        0.00
  JCT-90               JUNCTION  -nan(ind)     0.00     0.00     0  00:00        0.00
  JCT-92               JUNCTION  -nan(ind)     0.00     0.00     0  00:00        0.00
  JCT-94               JUNCTION  -nan(ind)     0.00     0.00     0  00:00        0.00
  JCT-96               JUNCTION  -nan(ind)     0.00     0.00     0  00:00        0.00
  PS1D                 JUNCTION  -nan(ind)     0.00    30.79     0  00:00        0.00
  PS2D                 JUNCTION  -nan(ind)     0.00    49.10     0  00:00        0.00
  PS3D                 JUNCTION  -nan(ind)     0.00    24.70     0  00:00        0.00
  PS4D                 JUNCTION  -nan(ind)     0.00    24.52     0  00:00        0.00
  PS5D                 JUNCTION  -nan(ind)     0.00    53.46     0  00:00        0.00
  PS6D                 JUNCTION  -nan(ind)     0.00    65.30     0  00:00        0.00
  RM1                  JUNCTION  -nan(ind)     0.00    72.50     0  00:00        0.00
  RM6                  JUNCTION  -nan(ind)     0.00    73.35     0  00:00        0.00
  RMH2                 JUNCTION  -nan(ind)     0.00    57.68     0  00:00        0.00
  STP                  OUTFALL   -nan(ind)     0.00    27.00     0  00:00        0.00
  12900                STORAGE   -nan(ind)     0.00    26.16     0  00:00        0.00
  12901                STORAGE   -nan(ind)     0.00    43.90     0  00:00        0.00
  12902                STORAGE   -nan(ind)     0.00    21.91     0  00:00        0.00
  12903                STORAGE   -nan(ind)     0.00    22.05     0  00:00        0.00
  16774                STORAGE   -nan(ind)     0.00    52.63     0  00:00        0.00
  18351                STORAGE   -nan(ind)     0.00    61.87     0  00:00        0.00
  
  
  *******************
  Node Inflow Summary
  *******************
  
  -------------------------------------------------------------------------------------------------
                                  Maximum  Maximum                  Lateral       Total        Flow
                                  Lateral    Total  Time of Max      Inflow      Inflow     Balance
                                   Inflow   Inflow   Occurrence      Volume      Volume       Error
  Node                 Type           LPS      LPS  days hr:min    10^6 ltr    10^6 ltr     Percent
  -------------------------------------------------------------------------------------------------
  112530               JUNCTION      0.00     0.00     0  00:00           0           0       0.000 ltr
  122874               JUNCTION      0.00     0.00     0  00:00           0           0       0.000 ltr
  122875               JUNCTION      0.00     0.00     0  00:00           0           0       0.000 ltr
  122876               JUNCTION      0.00     0.00     0  00:00           0           0       0.000 ltr
  122877               JUNCTION      0.00     0.00     0  00:00           0           0       0.000 ltr
  122878               JUNCTION      0.00     0.00     0  00:00           0           0       0.000 ltr
  122879               JUNCTION      0.00     0.00     0  00:00           0           0       0.000 ltr
  122880               JUNCTION      0.00     0.00     0  00:00           0           0       0.000 ltr
  122881               JUNCTION      0.00     0.00     0  00:00           0           0       0.000 ltr
  122882               JUNCTION      0.00     0.00     0  00:00           0           0       0.000 ltr
  122883               JUNCTION      0.00     0.00     0  00:00           0           0       0.000 ltr
  122884               JUNCTION      0.00     0.00     0  00:00           0           0       0.000 ltr
  122885               JUNCTION      0.00     0.00     0  00:00           0           0       0.000 ltr
  122886               JUNCTION      0.00     0.00     0  00:00           0           0       0.000 ltr
  122887               JUNCTION      0.00     0.00     0  00:00           0           0       0.000 ltr
  122888               JUNCTION      0.00     0.00     0  00:00           0           0       0.000 ltr
  122889               JUNCTION      0.00     0.00     0  00:00           0           0       0.000 ltr
  122890               JUNCTION      0.00     0.00     0  00:00           0           0       0.000 ltr
  122891               JUNCTION      0.00     0.00     0  00:00           0           0       0.000 ltr
  122892               JUNCTION      0.00     0.00     0  00:00           0           0       0.000 ltr
  122893               JUNCTION      0.00     0.00     0  00:00           0           0       0.000 ltr
  122894               JUNCTION      0.00     0.00     0  00:00           0           0       0.000 ltr
  122896               JUNCTION      0.00     0.00     0  00:00           0           0       0.000 ltr
  122897               JUNCTION      0.00     0.00     0  00:00           0           0       0.000 ltr
  122898               JUNCTION      0.00     0.00     0  00:00           0           0       0.000 ltr
  122899               JUNCTION      0.00     0.00     0  00:00           0           0       0.000 ltr
  122900               JUNCTION      0.00     0.00     0  00:00           0           0       0.000 ltr
  122901               JUNCTION      0.00     0.00     0  00:00           0           0       0.000 ltr
  122902               JUNCTION      0.00     0.00     0  00:00           0           0       0.000 ltr
  122903               JUNCTION      0.00     0.00     0  00:00           0           0       0.000 ltr
  122904               JUNCTION      0.00     0.00     0  00:00           0           0       0.000 ltr
  122905               JUNCTION      0.00     0.00     0  00:00           0           0       0.000 ltr
  122906               JUNCTION      0.00     0.00     0  00:00           0           0       0.000 ltr
  122907               JUNCTION      0.00     0.00     0  00:00           0           0       0.000 ltr
  122909               JUNCTION      0.00     0.00     0  00:00           0           0       0.000 ltr
  122910               JUNCTION      0.00     0.00     0  00:00           0           0       0.000 ltr
  122912               JUNCTION      0.00     0.00     0  00:00           0           0       0.000 ltr
  122913               JUNCTION      0.00     0.00     0  00:00           0           0       0.000 ltr
  122914               JUNCTION      0.00     0.00     0  00:00           0           0       0.000 ltr
  122915               JUNCTION      0.00     0.00     0  00:00           0           0       0.000 ltr
  122916               JUNCTION      0.00     0.00     0  00:00           0           0       0.000 ltr
  122917               JUNCTION      0.00     0.00     0  00:00           0           0       0.000 ltr
  122918               JUNCTION      0.00     0.00     0  00:00           0           0       0.000 ltr
  122919               JUNCTION      0.00     0.00     0  00:00           0           0       0.000 ltr
  122920               JUNCTION      0.00     0.00     0  00:00           0           0       0.000 ltr
  122921               JUNCTION      0.00     0.00     0  00:00           0           0       0.000 ltr
  122922               JUNCTION      0.00     0.00     0  00:00           0           0       0.000 ltr
  122923               JUNCTION      0.00     0.00     0  00:00           0           0       0.000 ltr
  122924               JUNCTION      0.00     0.00     0  00:00           0           0       0.000 ltr
  122925               JUNCTION      0.00     0.00     0  00:00           0           0       0.000 ltr
  122926               JUNCTION      0.00     0.00     0  00:00           0           0       0.000 ltr
  122927               JUNCTION      0.00     0.00     0  00:00           0           0       0.000 ltr
  12313                JUNCTION      0.00     0.00     0  00:00           0           0       0.000 ltr
  12315                JUNCTION      0.00     0.00     0  00:00           0           0       0.000 ltr
  12317                JUNCTION      0.00     0.00     0  00:00           0           0       0.000 ltr
  12319                JUNCTION      0.00     0.00     0  00:00           0           0       0.000 ltr
  12321                JUNCTION      0.00     0.00     0  00:00           0           0       0.000 ltr
  12322                JUNCTION      0.00     0.00     0  00:00           0           0       0.000 ltr
  12324                JUNCTION      0.00     0.00     0  00:00           0           0       0.000 ltr
  12327                JUNCTION      0.00     0.00     0  00:00           0           0       0.000 ltr
  12329                JUNCTION      0.00     0.00     0  00:00           0           0       0.000 ltr
  12331                JUNCTION      0.00     0.00     0  00:00           0           0       0.000 ltr
  12333                JUNCTION      0.00     0.00     0  00:00           0           0       0.000 ltr
  12335                JUNCTION      0.00     0.00     0  00:00           0           0       0.000 ltr
  12337                JUNCTION      0.00     0.00     0  00:00           0           0       0.000 ltr
  12339                JUNCTION      0.00     0.00     0  00:00           0           0       0.000 ltr
  123393               JUNCTION      0.00     0.00     0  00:00           0           0       0.000 ltr
  123394               JUNCTION      0.00     0.00     0  00:00           0           0       0.000 ltr
  123395               JUNCTION      0.00     0.00     0  00:00           0           0       0.000 ltr
  123396               JUNCTION      0.00     0.00     0  00:00           0           0       0.000 ltr
  123397               JUNCTION      0.00     0.00     0  00:00           0           0       0.000 ltr
  123398               JUNCTION      0.00     0.00     0  00:00           0           0       0.000 ltr
  123399               JUNCTION      0.00     0.00     0  00:00           0           0       0.000 ltr
[...]
  4796                    1.00   -nan(ind)  -nan(ind)  -nan(ind)  -nan(ind)  -nan(ind)  -nan(ind)  -nan(ind)  -nan(ind)  -nan(ind)
  4797                    1.00   -nan(ind)  -nan(ind)  -nan(ind)  -nan(ind)  -nan(ind)  -nan(ind)  -nan(ind)  -nan(ind)  -nan(ind)
  4798                    1.00   -nan(ind)  -nan(ind)  -nan(ind)  -nan(ind)  -nan(ind)  -nan(ind)  -nan(ind)  -nan(ind)  -nan(ind)
  4799                    1.00   -nan(ind)  -nan(ind)  -nan(ind)  -nan(ind)  -nan(ind)  -nan(ind)  -nan(ind)  -nan(ind)  -nan(ind)
  4800                    1.00   -nan(ind)  -nan(ind)  -nan(ind)  -nan(ind)  -nan(ind)  -nan(ind)  -nan(ind)  -nan(ind)  -nan(ind)
  4801                    1.00   -nan(ind)  -nan(ind)  -nan(ind)  -nan(ind)  -nan(ind)  -nan(ind)  -nan(ind)  -nan(ind)  -nan(ind)
  4802                    1.00   -nan(ind)  -nan(ind)  -nan(ind)  -nan(ind)  -nan(ind)  -nan(ind)  -nan(ind)  -nan(ind)  -nan(ind)
  4803                    1.00   -nan(ind)  -nan(ind)  -nan(ind)  -nan(ind)  -nan(ind)  -nan(ind)  -nan(ind)  -nan(ind)  -nan(ind)
  4804                    1.00   -nan(ind)  -nan(ind)  -nan(ind)  -nan(ind)  -nan(ind)  -nan(ind)  -nan(ind)  -nan(ind)  -nan(ind)
  4805                    1.00   -nan(ind)  -nan(ind)  -nan(ind)  -nan(ind)  -nan(ind)  -nan(ind)  -nan(ind)  -nan(ind)  -nan(ind)
  4806                    1.00   -nan(ind)  -nan(ind)  -nan(ind)  -nan(ind)  -nan(ind)  -nan(ind)  -nan(ind)  -nan(ind)  -nan(ind)
  4807                    1.00   -nan(ind)  -nan(ind)  -nan(ind)  -nan(ind)  -nan(ind)  -nan(ind)  -nan(ind)  -nan(ind)  -nan(ind)
  4808                    1.00   -nan(ind)  -nan(ind)  -nan(ind)  -nan(ind)  -nan(ind)  -nan(ind)  -nan(ind)  -nan(ind)  -nan(ind)
  4809                    1.00   -nan(ind)  -nan(ind)  -nan(ind)  -nan(ind)  -nan(ind)  -nan(ind)  -nan(ind)  -nan(ind)  -nan(ind)
  4810                    1.00   -nan(ind)  -nan(ind)  -nan(ind)  -nan(ind)  -nan(ind)  -nan(ind)  -nan(ind)  -nan(ind)  -nan(ind)
  4811                    1.00   -nan(ind)  -nan(ind)  -nan(ind)  -nan(ind)  -nan(ind)  -nan(ind)  -nan(ind)  -nan(ind)  -nan(ind)
  4812                    1.00   -nan(ind)  -nan(ind)  -nan(ind)  -nan(ind)  -nan(ind)  -nan(ind)  -nan(ind)  -nan(ind)  -nan(ind)
  4813                    1.00   -nan(ind)  -nan(ind)  -nan(ind)  -nan(ind)  -nan(ind)  -nan(ind)  -nan(ind)  -nan(ind)  -nan(ind)
  4814                    1.00   -nan(ind)  -nan(ind)  -nan(ind)  -nan(ind)  -nan(ind)  -nan(ind)  -nan(ind)  -nan(ind)  -nan(ind)
  4815                    1.00   -nan(ind)  -nan(ind)  -nan(ind)  -nan(ind)  -nan(ind)  -nan(ind)  -nan(ind)  -nan(ind)  -nan(ind)
  4816                    1.00   -nan(ind)  -nan(ind)  -nan(ind)  -nan(ind)  -nan(ind)  -nan(ind)  -nan(ind)  -nan(ind)  -nan(ind)
  4817                    1.00   -nan(ind)  -nan(ind)  -nan(ind)  -nan(ind)  -nan(ind)  -nan(ind)  -nan(ind)  -nan(ind)  -nan(ind)
  4818                    1.00   -nan(ind)  -nan(ind)  -nan(ind)  -nan(ind)  -nan(ind)  -nan(ind)  -nan(ind)  -nan(ind)  -nan(ind)
  4819                    1.00   -nan(ind)  -nan(ind)  -nan(ind)  -nan(ind)  -nan(ind)  -nan(ind)  -nan(ind)  -nan(ind)  -nan(ind)
  4820                    1.00   -nan(ind)  -nan(ind)  -nan(ind)  -nan(ind)  -nan(ind)  -nan(ind)  -nan(ind)  -nan(ind)  -nan(ind)
  4821                    1.00   -nan(ind)  -nan(ind)  -nan(ind)  -nan(ind)  -nan(ind)  -nan(ind)  -nan(ind)  -nan(ind)  -nan(ind)
  4822                    1.00   -nan(ind)  -nan(ind)  -nan(ind)  -nan(ind)  -nan(ind)  -nan(ind)  -nan(ind)  -nan(ind)  -nan(ind)
  4823                    1.00   -nan(ind)  -nan(ind)  -nan(ind)  -nan(ind)  -nan(ind)  -nan(ind)  -nan(ind)  -nan(ind)  -nan(ind)
  4824                    1.00   -nan(ind)  -nan(ind)  -nan(ind)  -nan(ind)  -nan(ind)  -nan(ind)  -nan(ind)  -nan(ind)  -nan(ind)
  4825                    1.00   -nan(ind)  -nan(ind)  -nan(ind)  -nan(ind)  -nan(ind)  -nan(ind)  -nan(ind)  -nan(ind)  -nan(ind)
  4826                    1.00   -nan(ind)  -nan(ind)  -nan(ind)  -nan(ind)  -nan(ind)  -nan(ind)  -nan(ind)  -nan(ind)  -nan(ind)
  4827                    1.00   -nan(ind)  -nan(ind)  -nan(ind)  -nan(ind)  -nan(ind)  -nan(ind)  -nan(ind)  -nan(ind)  -nan(ind)
  4828                    1.00   -nan(ind)  -nan(ind)  -nan(ind)  -nan(ind)  -nan(ind)  -nan(ind)  -nan(ind)  -nan(ind)  -nan(ind)
  4829                    1.00   -nan(ind)  -nan(ind)  -nan(ind)  -nan(ind)  -nan(ind)  -nan(ind)  -nan(ind)  -nan(ind)  -nan(ind)
  4830                    1.00   -nan(ind)  -nan(ind)  -nan(ind)  -nan(ind)  -nan(ind)  -nan(ind)  -nan(ind)  -nan(ind)  -nan(ind)
  4831                    1.00   -nan(ind)  -nan(ind)  -nan(ind)  -nan(ind)  -nan(ind)  -nan(ind)  -nan(ind)  -nan(ind)  -nan(ind)
  4832                    1.00   -nan(ind)  -nan(ind)  -nan(ind)  -nan(ind)  -nan(ind)  -nan(ind)  -nan(ind)  -nan(ind)  -nan(ind)
  4833                    1.00   -nan(ind)  -nan(ind)  -nan(ind)  -nan(ind)  -nan(ind)  -nan(ind)  -nan(ind)  -nan(ind)  -nan(ind)
  4834                    1.00   -nan(ind)  -nan(ind)  -nan(ind)  -nan(ind)  -nan(ind)  -nan(ind)  -nan(ind)  -nan(ind)  -nan(ind)
  4835                    1.00   -nan(ind)  -nan(ind)  -nan(ind)  -nan(ind)  -nan(ind)  -nan(ind)  -nan(ind)  -nan(ind)  -nan(ind)
  4836                    1.00   -nan(ind)  -nan(ind)  -nan(ind)  -nan(ind)  -nan(ind)  -nan(ind)  -nan(ind)  -nan(ind)  -nan(ind)
  4837                    1.00   -nan(ind)  -nan(ind)  -nan(ind)  -nan(ind)  -nan(ind)  -nan(ind)  -nan(ind)  -nan(ind)  -nan(ind)
  4838                    1.00   -nan(ind)  -nan(ind)  -nan(ind)  -nan(ind)  -nan(ind)  -nan(ind)  -nan(ind)  -nan(ind)  -nan(ind)
  4839                    1.00   -nan(ind)  -nan(ind)  -nan(ind)  -nan(ind)  -nan(ind)  -nan(ind)  -nan(ind)  -nan(ind)  -nan(ind)
  4840                    1.00   -nan(ind)  -nan(ind)  -nan(ind)  -nan(ind)  -nan(ind)  -nan(ind)  -nan(ind)  -nan(ind)  -nan(ind)
  4841                    1.00   -nan(ind)  -nan(ind)  -nan(ind)  -nan(ind)  -nan(ind)  -nan(ind)  -nan(ind)  -nan(ind)  -nan(ind)
  4842                    1.00   -nan(ind)  -nan(ind)  -nan(ind)  -nan(ind)  -nan(ind)  -nan(ind)  -nan(ind)  -nan(ind)  -nan(ind)
  4843                    1.00   -nan(ind)  -nan(ind)  -nan(ind)  -nan(ind)  -nan(ind)  -nan(ind)  -nan(ind)  -nan(ind)  -nan(ind)
  4844                    1.00   -nan(ind)  -nan(ind)  -nan(ind)  -nan(ind)  -nan(ind)  -nan(ind)  -nan(ind)  -nan(ind)  -nan(ind)
  4845                    1.00   -nan(ind)  -nan(ind)  -nan(ind)  -nan(ind)  -nan(ind)  -nan(ind)  -nan(ind)  -nan(ind)  -nan(ind)
  4846                    1.00   -nan(ind)  -nan(ind)  -nan(ind)  -nan(ind)  -nan(ind)  -nan(ind)  -nan(ind)  -nan(ind)  -nan(ind)
  4847                    1.00   -nan(ind)  -nan(ind)  -nan(ind)  -nan(ind)  -nan(ind)  -nan(ind)  -nan(ind)  -nan(ind)  -nan(ind)
  4848                    1.00   -nan(ind)  -nan(ind)  -nan(ind)  -nan(ind)  -nan(ind)  -nan(ind)  -nan(ind)  -nan(ind)  -nan(ind)
  4849                    1.00   -nan(ind)  -nan(ind)  -nan(ind)  -nan(ind)  -nan(ind)  -nan(ind)  -nan(ind)  -nan(ind)  -nan(ind)
  4850                    1.00   -nan(ind)  -nan(ind)  -nan(ind)  -nan(ind)  -nan(ind)  -nan(ind)  -nan(ind)  -nan(ind)  -nan(ind)
  4851                    1.00   -nan(ind)  -nan(ind)  -nan(ind)  -nan(ind)  -nan(ind)  -nan(ind)  -nan(ind)  -nan(ind)  -nan(ind)
  4852                    1.00   -nan(ind)  -nan(ind)  -nan(ind)  -nan(ind)  -nan(ind)  -nan(ind)  -nan(ind)  -nan(ind)  -nan(ind)
  4853                    1.00   -nan(ind)  -nan(ind)  -nan(ind)  -nan(ind)  -nan(ind)  -nan(ind)  -nan(ind)  -nan(ind)  -nan(ind)
  4854                    1.00   -nan(ind)  -nan(ind)  -nan(ind)  -nan(ind)  -nan(ind)  -nan(ind)  -nan(ind)  -nan(ind)  -nan(ind)
  4855                    1.00   -nan(ind)  -nan(ind)  -nan(ind)  -nan(ind)  -nan(ind)  -nan(ind)  -nan(ind)  -nan(ind)  -nan(ind)
  4856                    1.00   -nan(ind)  -nan(ind)  -nan(ind)  -nan(ind)  -nan(ind)  -nan(ind)  -nan(ind)  -nan(ind)  -nan(ind)
  4857                    1.00   -nan(ind)  -nan(ind)  -nan(ind)  -nan(ind)  -nan(ind)  -nan(ind)  -nan(ind)  -nan(ind)  -nan(ind)
  4858                    1.00   -nan(ind)  -nan(ind)  -nan(ind)  -nan(ind)  -nan(ind)  -nan(ind)  -nan(ind)  -nan(ind)  -nan(ind)
  4859                    1.00   -nan(ind)  -nan(ind)  -nan(ind)  -nan(ind)  -nan(ind)  -nan(ind)  -nan(ind)  -nan(ind)  -nan(ind)
  4860                    1.00   -nan(ind)  -nan(ind)  -nan(ind)  -nan(ind)  -nan(ind)  -nan(ind)  -nan(ind)  -nan(ind)  -nan(ind)
  4861                    1.00   -nan(ind)  -nan(ind)  -nan(ind)  -nan(ind)  -nan(ind)  -nan(ind)  -nan(ind)  -nan(ind)  -nan(ind)
  4862                    1.00   -nan(ind)  -nan(ind)  -nan(ind)  -nan(ind)  -nan(ind)  -nan(ind)  -nan(ind)  -nan(ind)  -nan(ind)
  4863                    1.00   -nan(ind)  -nan(ind)  -nan(ind)  -nan(ind)  -nan(ind)  -nan(ind)  -nan(ind)  -nan(ind)  -nan(ind)
  4864                    1.00   -nan(ind)  -nan(ind)  -nan(ind)  -nan(ind)  -nan(ind)  -nan(ind)  -nan(ind)  -nan(ind)  -nan(ind)
  4865                    1.00   -nan(ind)  -nan(ind)  -nan(ind)  -nan(ind)  -nan(ind)  -nan(ind)  -nan(ind)  -nan(ind)  -nan(ind)
  4866                    1.00   -nan(ind)  -nan(ind)  -nan(ind)  -nan(ind)  -nan(ind)  -nan(ind)  -nan(ind)  -nan(ind)  -nan(ind)
  4867                    1.00   -nan(ind)  -nan(ind)  -nan(ind)  -nan(ind)  -nan(ind)  -nan(ind)  -nan(ind)  -nan(ind)  -nan(ind)
  4868                    1.00   -nan(ind)  -nan(ind)  -nan(ind)  -nan(ind)  -nan(ind)  -nan(ind)  -nan(ind)  -nan(ind)  -nan(ind)
  4869                    1.00   -nan(ind)  -nan(ind)  -nan(ind)  -nan(ind)  -nan(ind)  -nan(ind)  -nan(ind)  -nan(ind)  -nan(ind)
  4870                    1.00   -nan(ind)  -nan(ind)  -nan(ind)  -nan(ind)  -nan(ind)  -nan(ind)  -nan(ind)  -nan(ind)  -nan(ind)
  4871                    1.00   -nan(ind)  -nan(ind)  -nan(ind)  -nan(ind)  -nan(ind)  -nan(ind)  -nan(ind)  -nan(ind)  -nan(ind)
  4872                    1.00   -nan(ind)  -nan(ind)  -nan(ind)  -nan(ind)  -nan(ind)  -nan(ind)  -nan(ind)  -nan(ind)  -nan(ind)
  4873                    1.00   -nan(ind)  -nan(ind)  -nan(ind)  -nan(ind)  -nan(ind)  -nan(ind)  -nan(ind)  -nan(ind)  -nan(ind)
  4874                    1.00   -nan(ind)  -nan(ind)  -nan(ind)  -nan(ind)  -nan(ind)  -nan(ind)  -nan(ind)  -nan(ind)  -nan(ind)
  4875                    1.00   -nan(ind)  -nan(ind)  -nan(ind)  -nan(ind)  -nan(ind)  -nan(ind)  -nan(ind)  -nan(ind)  -nan(ind)
  4876                    1.00   -nan(ind)  -nan(ind)  -nan(ind)  -nan(ind)  -nan(ind)  -nan(ind)  -nan(ind)  -nan(ind)  -nan(ind)
  4877                    1.00   -nan(ind)  -nan(ind)  -nan(ind)  -nan(ind)  -nan(ind)  -nan(ind)  -nan(ind)  -nan(ind)  -nan(ind)
  4878                    1.00   -nan(ind)  -nan(ind)  -nan(ind)  -nan(ind)  -nan(ind)  -nan(ind)  -nan(ind)  -nan(ind)  -nan(ind)
  4879                    1.00   -nan(ind)  -nan(ind)  -nan(ind)  -nan(ind)  -nan(ind)  -nan(ind)  -nan(ind)  -nan(ind)  -nan(ind)
  4880                    1.00   -nan(ind)  -nan(ind)  -nan(ind)  -nan(ind)  -nan(ind)  -nan(ind)  -nan(ind)  -nan(ind)  -nan(ind)
  4881                    1.00   -nan(ind)  -nan(ind)  -nan(ind)  -nan(ind)  -nan(ind)  -nan(ind)  -nan(ind)  -nan(ind)  -nan(ind)
  4882                    1.00   -nan(ind)  -nan(ind)  -nan(ind)  -nan(ind)  -nan(ind)  -nan(ind)  -nan(ind)  -nan(ind)  -nan(ind)
  4883                    1.00   -nan(ind)  -nan(ind)  -nan(ind)  -nan(ind)  -nan(ind)  -nan(ind)  -nan(ind)  -nan(ind)  -nan(ind)
  4884                    1.00   -nan(ind)  -nan(ind)  -nan(ind)  -nan(ind)  -nan(ind)  -nan(ind)  -nan(ind)  -nan(ind)  -nan(ind)
  4885                    1.00   -nan(ind)  -nan(ind)  -nan(ind)  -nan(ind)  -nan(ind)  -nan(ind)  -nan(ind)  -nan(ind)  -nan(ind)
  4886                    1.00   -nan(ind)  -nan(ind)  -nan(ind)  -nan(ind)  -nan(ind)  -nan(ind)  -nan(ind)  -nan(ind)  -nan(ind)
  4887                    1.00   -nan(ind)  -nan(ind)  -nan(ind)  -nan(ind)  -nan(ind)  -nan(ind)  -nan(ind)  -nan(ind)  -nan(ind)
  4888                    1.00   -nan(ind)  -nan(ind)  -nan(ind)  -nan(ind)  -nan(ind)  -nan(ind)  -nan(ind)  -nan(ind)  -nan(ind)
  4889                    1.00   -nan(ind)  -nan(ind)  -nan(ind)  -nan(ind)  -nan(ind)  -nan(ind)  -nan(ind)  -nan(ind)  -nan(ind)
  4890                    1.00   -nan(ind)  -nan(ind)  -nan(ind)  -nan(ind)  -nan(ind)  -nan(ind)  -nan(ind)  -nan(ind)  -nan(ind)
  4891                    1.00   -nan(ind)  -nan(ind)  -nan(ind)  -nan(ind)  -nan(ind)  -nan(ind)  -nan(ind)  -nan(ind)  -nan(ind)
  4892                    1.00   -nan(ind)  -nan(ind)  -nan(ind)  -nan(ind)  -nan(ind)  -nan(ind)  -nan(ind)  -nan(ind)  -nan(ind)
  4893                    1.00   -nan(ind)  -nan(ind)  -nan(ind)  -nan(ind)  -nan(ind)  -nan(ind)  -nan(ind)  -nan(ind)  -nan(ind)
  4894                    1.00   -nan(ind)  -nan(ind)  -nan(ind)  -nan(ind)  -nan(ind)  -nan(ind)  -nan(ind)  -nan(ind)  -nan(ind)
  4895                    1.00   -nan(ind)  -nan(ind)  -nan(ind)  -nan(ind)  -nan(ind)  -nan(ind)  -nan(ind)  -nan(ind)  -nan(ind)
  4896                    1.00   -nan(ind)  -nan(ind)  -nan(ind)  -nan(ind)  -nan(ind)  -nan(ind)  -nan(ind)  -nan(ind)  -nan(ind)
  4897                    1.00   -nan(ind)  -nan(ind)  -nan(ind)  -nan(ind)  -nan(ind)  -nan(ind)  -nan(ind)  -nan(ind)  -nan(ind)
  4898                    1.00   -nan(ind)  -nan(ind)  -nan(ind)  -nan(ind)  -nan(ind)  -nan(ind)  -nan(ind)  -nan(ind)  -nan(ind)
  4899                    1.00   -nan(ind)  -nan(ind)  -nan(ind)  -nan(ind)  -nan(ind)  -nan(ind)  -nan(ind)  -nan(ind)  -nan(ind)
  4900                    1.00   -nan(ind)  -nan(ind)  -nan(ind)  -nan(ind)  -nan(ind)  -nan(ind)  -nan(ind)  -nan(ind)  -nan(ind)
  4901                    1.00   -nan(ind)  -nan(ind)  -nan(ind)  -nan(ind)  -nan(ind)  -nan(ind)  -nan(ind)  -nan(ind)  -nan(ind)
  4902                    1.00   -nan(ind)  -nan(ind)  -nan(ind)  -nan(ind)  -nan(ind)  -nan(ind)  -nan(ind)  -nan(ind)  -nan(ind)
  4903                    1.00   -nan(ind)  -nan(ind)  -nan(ind)  -nan(ind)  -nan(ind)  -nan(ind)  -nan(ind)  -nan(ind)  -nan(ind)
  4904                    1.00   -nan(ind)  -nan(ind)  -nan(ind)  -nan(ind)  -nan(ind)  -nan(ind)  -nan(ind)  -nan(ind)  -nan(ind)
  4905                    1.00   -nan(ind)  -nan(ind)  -nan(ind)  -nan(ind)  -nan(ind)  -nan(ind)  -nan(ind)  -nan(ind)  -nan(ind)
  4906                    1.00   -nan(ind)  -nan(ind)  -nan(ind)  -nan(ind)  -nan(ind)  -nan(ind)  -nan(ind)  -nan(ind)  -nan(ind)
  4907                    1.00   -nan(ind)  -nan(ind)  -nan(ind)  -nan(ind)  -nan(ind)  -nan(ind)  -nan(ind)  -nan(ind)  -nan(ind)
  4908                    1.00   -nan(ind)  -nan(ind)  -nan(ind)  -nan(ind)  -nan(ind)  -nan(ind)  -nan(ind)  -nan(ind)  -nan(ind)
  4909                    1.00   -nan(ind)  -nan(ind)  -nan(ind)  -nan(ind)  -nan(ind)  -nan(ind)  -nan(ind)  -nan(ind)  -nan(ind)
  4910                    1.00   -nan(ind)  -nan(ind)  -nan(ind)  -nan(ind)  -nan(ind)  -nan(ind)  -nan(ind)  -nan(ind)  -nan(ind)
  4911                    1.00   -nan(ind)  -nan(ind)  -nan(ind)  -nan(ind)  -nan(ind)  -nan(ind)  -nan(ind)  -nan(ind)  -nan(ind)
  4912                    1.00   -nan(ind)  -nan(ind)  -nan(ind)  -nan(ind)  -nan(ind)  -nan(ind)  -nan(ind)  -nan(ind)  -nan(ind)
  4913                    1.00   -nan(ind)  -nan(ind)  -nan(ind)  -nan(ind)  -nan(ind)  -nan(ind)  -nan(ind)  -nan(ind)  -nan(ind)
  4914                    1.00   -nan(ind)  -nan(ind)  -nan(ind)  -nan(ind)  -nan(ind)  -nan(ind)  -nan(ind)  -nan(ind)  -nan(ind)
  4915                    1.00   -nan(ind)  -nan(ind)  -nan(ind)  -nan(ind)  -nan(ind)  -nan(ind)  -nan(ind)  -nan(ind)  -nan(ind)
  4916                    1.00   -nan(ind)  -nan(ind)  -nan(ind)  -nan(ind)  -nan(ind)  -nan(ind)  -nan(ind)  -nan(ind)  -nan(ind)
  4917                    1.00   -nan(ind)  -nan(ind)  -nan(ind)  -nan(ind)  -nan(ind)  -nan(ind)  -nan(ind)  -nan(ind)  -nan(ind)
  4918                    1.00   -nan(ind)  -nan(ind)  -nan(ind)  -nan(ind)  -nan(ind)  -nan(ind)  -nan(ind)  -nan(ind)  -nan(ind)
  4919                    1.00   -nan(ind)  -nan(ind)  -nan(ind)  -nan(ind)  -nan(ind)  -nan(ind)  -nan(ind)  -nan(ind)  -nan(ind)
  4920                    1.00   -nan(ind)  -nan(ind)  -nan(ind)  -nan(ind)  -nan(ind)  -nan(ind)  -nan(ind)  -nan(ind)  -nan(ind)
  4921                    1.00   -nan(ind)  -nan(ind)  -nan(ind)  -nan(ind)  -nan(ind)  -nan(ind)  -nan(ind)  -nan(ind)  -nan(ind)
  4922                    1.00   -nan(ind)  -nan(ind)  -nan(ind)  -nan(ind)  -nan(ind)  -nan(ind)  -nan(ind)  -nan(ind)  -nan(ind)
  4923                    1.00   -nan(ind)  -nan(ind)  -nan(ind)  -nan(ind)  -nan(ind)  -nan(ind)  -nan(ind)  -nan(ind)  -nan(ind)
  80001                   1.00   -nan(ind)  -nan(ind)  -nan(ind)  -nan(ind)  -nan(ind)  -nan(ind)  -nan(ind)  -nan(ind)  -nan(ind)
  80013                   1.00   -nan(ind)  -nan(ind)  -nan(ind)  -nan(ind)  -nan(ind)  -nan(ind)  -nan(ind)  -nan(ind)  -nan(ind)
  80054                   1.00   -nan(ind)  -nan(ind)  -nan(ind)  -nan(ind)  -nan(ind)  -nan(ind)  -nan(ind)  -nan(ind)  -nan(ind)
  80055                   1.00   -nan(ind)  -nan(ind)  -nan(ind)  -nan(ind)  -nan(ind)  -nan(ind)  -nan(ind)  -nan(ind)  -nan(ind)
  80056                   1.00   -nan(ind)  -nan(ind)  -nan(ind)  -nan(ind)  -nan(ind)  -nan(ind)  -nan(ind)  -nan(ind)  -nan(ind)
  80063                   1.00   -nan(ind)  -nan(ind)  -nan(ind)  -nan(ind)  -nan(ind)  -nan(ind)  -nan(ind)  -nan(ind)  -nan(ind)
  80064                   1.00   -nan(ind)  -nan(ind)  -nan(ind)  -nan(ind)  -nan(ind)  -nan(ind)  -nan(ind)  -nan(ind)  -nan(ind)
  CDT-19                  1.00   -nan(ind)  -nan(ind)  -nan(ind)  -nan(ind)  -nan(ind)  -nan(ind)  -nan(ind)  -nan(ind)  -nan(ind)
  CDT-21                  1.00   -nan(ind)  -nan(ind)  -nan(ind)  -nan(ind)  -nan(ind)  -nan(ind)  -nan(ind)  -nan(ind)  -nan(ind)
  CDT-23                  1.00   -nan(ind)  -nan(ind)  -nan(ind)  -nan(ind)  -nan(ind)  -nan(ind)  -nan(ind)  -nan(ind)  -nan(ind)
  CDT-25                  1.00   -nan(ind)  -nan(ind)  -nan(ind)  -nan(ind)  -nan(ind)  -nan(ind)  -nan(ind)  -nan(ind)  -nan(ind)
  INLET                   1.89   -nan(ind)  -nan(ind)  -nan(ind)  -nan(ind)  -nan(ind)  -nan(ind)  -nan(ind)  -nan(ind)  -nan(ind)
  RM1.1                   1.00   -nan(ind)  -nan(ind)  -nan(ind)  -nan(ind)  -nan(ind)  -nan(ind)  -nan(ind)  -nan(ind)  -nan(ind)
  
  
  *************************
  Conduit Surcharge Summary
  *************************
  
  No conduits were surcharged.
  
  
  ***************
  Pumping Summary
  ***************
  
  ---------------------------------------------------------------------------------------------------------
                                                  Min       Avg       Max     Total     Power    % Time Off
                        Percent   Number of      Flow      Flow      Flow    Volume     Usage    Pump Curve
  Pump                 Utilized   Start-Ups       LPS       LPS       LPS  10^6 ltr     Kw-hr    Low   High
  ---------------------------------------------------------------------------------------------------------
  P1                   -nan(ind)           0      0.00      0.00      0.00     0.000      0.00    0.0    0.0
  P2                   -nan(ind)           0      0.00      0.00      0.00     0.000      0.00    0.0    0.0
  P3                   -nan(ind)           0      0.00      0.00      0.00     0.000      0.00    0.0    0.0
  P4                   -nan(ind)           0      0.00      0.00      0.00     0.000      0.00    0.0    0.0
  P5                   -nan(ind)           0      0.00      0.00      0.00     0.000      0.00    0.0    0.0
  P6                   -nan(ind)           0      0.00      0.00      0.00     0.000      0.00    0.0    0.0
  

  Analysis begun on:  Sat Nov 30 08:11:27 2019
  Analysis ended on:  Sat Nov 30 08:11:27 2019
  Total elapsed time: < 1 sec