
  EPA STORM WATER MANAGEMENT MODEL - VERSION 5.1 (Build 5.1.013)
  --------------------------------------------------------------

  WARNING 04: minimum elevation drop used for Conduit 04-001
  WARNING 04: minimum elevation drop used for Conduit 06-001
  WARNING 08: elevation drop exceeds length for Conduit 101-0009
  WARNING 08: elevation drop exceeds length for Conduit 17-0101
  WARNING 08: elevation drop exceeds length for Conduit 17-0104
  WARNING 04: minimum elevation drop used for Conduit 23-001
  WARNING 08: elevation drop exceeds length for Conduit 40-2472
  WARNING 08: elevation drop exceeds length for Conduit 42-0001
  WARNING 04: minimum elevation drop used for Conduit 44-001
  WARNING 04: minimum elevation drop used for Conduit 45-004
  WARNING 04: minimum elevation drop used for Conduit 48-001
  WARNING 04: minimum elevation drop used for Conduit 51-001
  WARNING 04: minimum elevation drop used for Conduit 52-001
  WARNING 08: elevation drop exceeds length for Conduit 64-0598
  WARNING 02: maximum depth increased for Node 10-0224
  WARNING 02: maximum depth increased for Node 10-0917
  WARNING 02: maximum depth increased for Node 132
  WARNING 02: maximum depth increased for Node 18-0102
  WARNING 02: maximum depth increased for Node 18-0105
  WARNING 02: maximum depth increased for Node 20-0166
  WARNING 02: maximum depth increased for Node 35-0122
  WARNING 02: maximum depth increased for Node 35-0350
  WARNING 02: maximum depth increased for Node 37-0102
  WARNING 02: maximum depth increased for Node 40-0288
  WARNING 02: maximum depth increased for Node 40-0671
  WARNING 02: maximum depth increased for Node 40-0757
  WARNING 02: maximum depth increased for Node 40-0803
  WARNING 02: maximum depth increased for Node 40-0882
  WARNING 02: maximum depth increased for Node 40-0981
  WARNING 02: maximum depth increased for Node 40-1113
  WARNING 02: maximum depth increased for Node 40-1373
  WARNING 02: maximum depth increased for Node 40-2023
  WARNING 02: maximum depth increased for Node 40-2054
  WARNING 02: maximum depth increased for Node 40-2301
  WARNING 02: maximum depth increased for Node 40-2419
  WARNING 02: maximum depth increased for Node 40-2510
  WARNING 02: maximum depth increased for Node 40-2866
  WARNING 02: maximum depth increased for Node 40-2904
  WARNING 02: maximum depth increased for Node 40-4014
  WARNING 02: maximum depth increased for Node 40-4263
  WARNING 02: maximum depth increased for Node 40-5226
  WARNING 02: maximum depth increased for Node 40-6027
  WARNING 02: maximum depth increased for Node 40-8201
  WARNING 02: maximum depth increased for Node 41-0201
  WARNING 02: maximum depth increased for Node 41-0309
  WARNING 02: maximum depth increased for Node 45-0104
  WARNING 02: maximum depth increased for Node 49-0290
  WARNING 02: maximum depth increased for Node 49-0511
  WARNING 02: maximum depth increased for Node 49-0620
  WARNING 02: maximum depth increased for Node 58-0236
  WARNING 02: maximum depth increased for Node 58-0326
  WARNING 02: maximum depth increased for Node 58-0350
  WARNING 02: maximum depth increased for Node 60-0303B
  WARNING 02: maximum depth increased for Node 60-0465
  WARNING 02: maximum depth increased for Node 60-0520
  WARNING 02: maximum depth increased for Node 60-0660
  WARNING 02: maximum depth increased for Node 60-0704
  WARNING 02: maximum depth increased for Node 60-0792
  WARNING 02: maximum depth increased for Node 60-0793
  WARNING 02: maximum depth increased for Node 60-0817
  WARNING 02: maximum depth increased for Node 60-0880
  WARNING 02: maximum depth increased for Node 61-0330
  WARNING 02: maximum depth increased for Node 64-0582
  WARNING 02: maximum depth increased for Node 64-0583
  WARNING 02: maximum depth increased for Node 87-0095
  WARNING 02: maximum depth increased for Node MH-20
  
  *********************************************************
  NOTE: The summary statistics displayed in this report are
  based on results found at every computational time step,  
  not just on results from each reporting time step.
  *********************************************************
  
  ****************
  Analysis Options
  ****************
  Flow Units ............... GPM
  Process Models:
    Rainfall/Runoff ........ NO
    RDII ................... NO
    Snowmelt ............... NO
    Groundwater ............ NO
    Flow Routing ........... YES
    Ponding Allowed ........ NO
    Water Quality .......... NO
  Flow Routing Method ...... DYNWAVE
  Surcharge Method ......... EXTRAN
  Starting Date ............ 01/01/2002 00:00:00
  Ending Date .............. 01/01/2002 12:00:00
  Antecedent Dry Days ...... 5.0
  Report Time Step ......... 00:05:00
  Routing Time Step ........ 300.00 sec
  Variable Time Step ....... YES
  Maximum Trials ........... 8
  Number of Threads ........ 1
  Head Tolerance ........... 0.005000 ft
  
  
  **************************        Volume        Volume
  Flow Routing Continuity        acre-feet      10^6 gal
  **************************     ---------     ---------
  Dry Weather Inflow .......         0.000         0.000
  Wet Weather Inflow .......         0.000         0.000
  Groundwater Inflow .......         0.000         0.000
  RDII Inflow ..............         0.000         0.000
  External Inflow ..........         0.000         0.000
  External Outflow .........         0.000         0.000
  Flooding Loss ............         0.000         0.000
  Evaporation Loss .........         0.000         0.000
  Exfiltration Loss ........         0.000         0.000
  Initial Stored Volume ....         0.795         0.259
  Final Stored Volume ......         0.795         0.259
  Continuity Error (%) .....         0.000
  
  
  ***************************
  Time-Step Critical Elements
  ***************************
  None
  
  
  ********************************
  Highest Flow Instability Indexes
  ********************************
  All links are stable.
  
  
  ******************
  Node Depth Summary
  ******************
  
  ---------------------------------------------------------------------------------
                                 Average  Maximum  Maximum  Time of Max    Reported
                                   Depth    Depth      HGL   Occurrence   Max Depth
  Node                 Type         Feet     Feet     Feet  days hr:min        Feet
  ---------------------------------------------------------------------------------
  00-0000              JUNCTION  -nan(ind)     0.00    20.00     0  00:00        0.00
  01-0101              JUNCTION  -nan(ind)     0.00    22.50     0  00:00        0.00
  01-0102              JUNCTION  -nan(ind)     0.00    25.62     0  00:00        0.00
  01-0103              JUNCTION  -nan(ind)     0.00    34.00     0  00:00        0.00
  01-0104              JUNCTION  -nan(ind)     0.00    40.70     0  00:00        0.00
  01-0105              JUNCTION  -nan(ind)     0.00    48.00     0  00:00        0.00
  01-0106              JUNCTION  -nan(ind)     0.00    41.00     0  00:00        0.00
  01-0110              JUNCTION  -nan(ind)     0.00    24.26     0  00:00        0.00
  01-0111              JUNCTION  -nan(ind)     0.00    25.96     0  00:00        0.00
  01-0112              JUNCTION  -nan(ind)     0.00    28.00     0  00:00        0.00
  012                  JUNCTION  -nan(ind)     0.00    15.50     0  00:00        0.00
  02-0101              JUNCTION  -nan(ind)     0.00     9.20     0  00:00        0.00
  02-0102              JUNCTION  -nan(ind)     0.00    23.70     0  00:00        0.00
  02-0103              JUNCTION  -nan(ind)     0.00    42.20     0  00:00        0.00
  02-0104              JUNCTION  -nan(ind)     0.00    43.20     0  00:00        0.00
  02-0105              JUNCTION  -nan(ind)     0.00    54.70     0  00:00        0.00
  02-0106              JUNCTION  -nan(ind)     0.00    58.50     0  00:00        0.00
  02-0107              JUNCTION  -nan(ind)     0.00    83.00     0  00:00        0.00
  02-0108              JUNCTION  -nan(ind)     0.00    89.70     0  00:00        0.00
  02-0109              JUNCTION  -nan(ind)     0.00   111.20     0  00:00        0.00
  02-0110              JUNCTION  -nan(ind)     0.00   116.00     0  00:00        0.00
  02-0111              JUNCTION  -nan(ind)     0.00    91.70     0  00:00        0.00
  02-0112              JUNCTION  -nan(ind)     0.00   118.20     0  00:00        0.00
  02-0113              JUNCTION  -nan(ind)     0.00   132.00     0  00:00        0.00
  02-0114              JUNCTION  -nan(ind)     0.00    46.50     0  00:00        0.00
  02-0115              JUNCTION  -nan(ind)     0.00    63.20     0  00:00        0.00
  02-0116              JUNCTION  -nan(ind)     0.00    75.00     0  00:00        0.00
  02-0117              JUNCTION  -nan(ind)     0.00    92.50     0  00:00        0.00
  02-0118              JUNCTION  -nan(ind)     0.00   120.20     0  00:00        0.00
  02-0119              JUNCTION  -nan(ind)     0.00   130.70     0  00:00        0.00
  02-0120              JUNCTION  -nan(ind)     0.00   134.00     0  00:00        0.00
  02-0121              JUNCTION  -nan(ind)     0.00   111.00     0  00:00        0.00
  02-0130              JUNCTION  -nan(ind)     0.00    26.50     0  00:00        0.00
  02-0131              JUNCTION  -nan(ind)     0.00    10.00     0  00:00        0.00
  02-0132              JUNCTION  -nan(ind)     0.00    63.00     0  00:00        0.00
  02-0133              JUNCTION  -nan(ind)     0.00    10.60     0  00:00        0.00
  02-0134              JUNCTION  -nan(ind)     0.00    37.50     0  00:00        0.00
  02-0135              JUNCTION  -nan(ind)     0.00    38.20     0  00:00        0.00
  02-0136              JUNCTION  -nan(ind)     0.00    40.00     0  00:00        0.00
  02-0137              JUNCTION  -nan(ind)     0.00    48.70     0  00:00        0.00
  02-0138              JUNCTION  -nan(ind)     0.00    67.00     0  00:00        0.00
  03-0101              JUNCTION  -nan(ind)     0.00    58.50     0  00:00        0.00
  03-0102              JUNCTION  -nan(ind)     0.00    66.70     0  00:00        0.00
  03-0103              JUNCTION  -nan(ind)     0.00    68.70     0  00:00        0.00
  03-0104              JUNCTION  -nan(ind)     0.00    99.70     0  00:00        0.00
  03-0105              JUNCTION  -nan(ind)     0.00   127.00     0  00:00        0.00
  03-0106              JUNCTION  -nan(ind)     0.00     0.00     0  00:00        0.00
  03-0107              JUNCTION  -nan(ind)     0.00    91.20     0  00:00        0.00
  03-0108              JUNCTION  -nan(ind)     0.00    98.20     0  00:00        0.00
  03-0109              JUNCTION  -nan(ind)     0.00     0.00     0  00:00        0.00
  03-0150              JUNCTION  -nan(ind)     0.00    48.25     0  00:00        0.00
  03-0150A             JUNCTION  -nan(ind)     0.00    48.70     0  00:00        0.00
  03-0151              JUNCTION  -nan(ind)     0.00    57.20     0  00:00        0.00
  03-0152              JUNCTION  -nan(ind)     0.00    69.20     0  00:00        0.00
  03-0153              JUNCTION  -nan(ind)     0.00    77.70     0  00:00        0.00
  03-0154              JUNCTION  -nan(ind)     0.00    82.70     0  00:00        0.00
  03-0155              JUNCTION  -nan(ind)     0.00    88.70     0  00:00        0.00
  03-0156              JUNCTION  -nan(ind)     0.00   103.20     0  00:00        0.00
  03-0157              JUNCTION  -nan(ind)     0.00   117.50     0  00:00        0.00
  03-0158              JUNCTION  -nan(ind)     0.00   128.70     0  00:00        0.00
  03-0159              JUNCTION  -nan(ind)     0.00   130.50     0  00:00        0.00
  03-0160              JUNCTION  -nan(ind)     0.00   129.00     0  00:00        0.00
  03-0161              JUNCTION  -nan(ind)     0.00    87.70     0  00:00        0.00
  03-0162              JUNCTION  -nan(ind)     0.00    92.20     0  00:00        0.00
  03-0163              JUNCTION  -nan(ind)     0.00   101.20     0  00:00        0.00
  03-0164              JUNCTION  -nan(ind)     0.00   112.50     0  00:00        0.00
  03-0165              JUNCTION  -nan(ind)     0.00   127.00     0  00:00        0.00
  04-0101              JUNCTION  -nan(ind)     0.00    79.45     0  00:00        0.00
  04-0102              JUNCTION  -nan(ind)     0.00    80.50     0  00:00        0.00
  04-0103              JUNCTION  -nan(ind)     0.00    82.70     0  00:00        0.00
  04-0104              JUNCTION  -nan(ind)     0.00    84.00     0  00:00        0.00
  04-0105              JUNCTION  -nan(ind)     0.00    84.50     0  00:00        0.00
  05-0101              JUNCTION  -nan(ind)     0.00     0.86     0  00:00        0.00
  05-0102              JUNCTION  -nan(ind)     0.00    10.20     0  00:00        0.00
  05-0103              JUNCTION  -nan(ind)     0.00    16.20     0  00:00        0.00
  05-0104              JUNCTION  -nan(ind)     0.00    17.50     0  00:00        0.00
  05-0105              JUNCTION  -nan(ind)     0.00    67.70     0  00:00        0.00
  05-0106              JUNCTION  -nan(ind)     0.00    85.00     0  00:00        0.00
  05-0110              JUNCTION  -nan(ind)     0.00     3.06     0  00:00        0.00
  05-0111              JUNCTION  -nan(ind)     0.00     3.94     0  00:00        0.00
  05-0112              JUNCTION  -nan(ind)     0.00     8.20     0  00:00        0.00
  05-0113              JUNCTION  -nan(ind)     0.00    15.00     0  00:00        0.00
  05-0114              JUNCTION  -nan(ind)     0.00    16.00     0  00:00        0.00
  05-0115              JUNCTION  -nan(ind)     0.00    18.02     0  00:00        0.00
  05-0130              JUNCTION  -nan(ind)     0.00    18.88     0  00:00        0.00
  05-0131              JUNCTION  -nan(ind)     0.00    20.29     0  00:00        0.00
  05-0132              JUNCTION  -nan(ind)     0.00    20.81     0  00:00        0.00
  05-0133              JUNCTION  -nan(ind)     0.00    57.20     0  00:00        0.00
  05-0134              JUNCTION  -nan(ind)     0.00    88.20     0  00:00        0.00
  05-0135              JUNCTION  -nan(ind)     0.00   128.00     0  00:00        0.00
  06-0101              JUNCTION  -nan(ind)     0.00   114.67     0  00:00        0.00
  06-0102              JUNCTION  -nan(ind)     0.00   116.22     0  00:00        0.00
  06-0103              JUNCTION  -nan(ind)     0.00   116.70     0  00:00        0.00
  06-0104              JUNCTION  -nan(ind)     0.00   117.93     0  00:00        0.00
  06-0105              JUNCTION  -nan(ind)     0.00   125.50     0  00:00        0.00
  06-0106              JUNCTION  -nan(ind)     0.00   128.50     0  00:00        0.00
  06-0110              JUNCTION  -nan(ind)     0.00   116.20     0  00:00        0.00
  06-0111              JUNCTION  -nan(ind)     0.00   122.20     0  00:00        0.00
  06-0112              JUNCTION  -nan(ind)     0.00   146.00     0  00:00        0.00
  06-0113              JUNCTION  -nan(ind)     0.00   130.50     0  00:00        0.00
  10-0090              JUNCTION  -nan(ind)     0.00    -1.61     0  00:00        0.00
  10-0091              JUNCTION  -nan(ind)     0.00    -1.00     0  00:00        0.00
  10-0092              JUNCTION  -nan(ind)     0.00     1.38     0  00:00        0.00
  10-0093              JUNCTION  -nan(ind)     0.00     1.90     0  00:00        0.00
  10-0094              JUNCTION  -nan(ind)     0.00     5.85     0  00:00        0.00
  10-0095              JUNCTION  -nan(ind)     0.00    -0.68     0  00:00        0.00
  10-0096              JUNCTION  -nan(ind)     0.00    -0.01     0  00:00        0.00
  10-0097              JUNCTION  -nan(ind)     0.00     0.39     0  00:00        0.00
  10-0098              JUNCTION  -nan(ind)     0.00     1.05     0  00:00        0.00
  10-0099              JUNCTION  -nan(ind)     0.00     1.27     0  00:00        0.00
  10-0103              JUNCTION  -nan(ind)     0.00     5.80     0  00:00        0.00
  10-0104              JUNCTION  -nan(ind)     0.00     7.08     0  00:00        0.00
  10-0105              JUNCTION  -nan(ind)     0.00     7.34     0  00:00        0.00
  10-0106              JUNCTION  -nan(ind)     0.00     8.30     0  00:00        0.00
  10-0107              JUNCTION  -nan(ind)     0.00     9.15     0  00:00        0.00
  10-0108              JUNCTION  -nan(ind)     0.00    11.05     0  00:00        0.00
  10-0109              JUNCTION  -nan(ind)     0.00    13.02     0  00:00        0.00
  10-0110              JUNCTION  -nan(ind)     0.00    14.80     0  00:00        0.00
  10-0111              JUNCTION  -nan(ind)     0.00    15.59     0  00:00        0.00
  10-0112              JUNCTION  -nan(ind)     0.00    16.36     0  00:00        0.00
  10-0113              JUNCTION  -nan(ind)     0.00    16.98     0  00:00        0.00
  10-0114              JUNCTION  -nan(ind)     0.00    17.56     0  00:00        0.00
  10-0115              JUNCTION  -nan(ind)     0.00    17.61     0  00:00        0.00
  10-0116              JUNCTION  -nan(ind)     0.00    18.51     0  00:00        0.00
  10-0117              JUNCTION  -nan(ind)     0.00    19.31     0  00:00        0.00
  10-0118              JUNCTION  -nan(ind)     0.00    19.93     0  00:00        0.00
  10-0119              JUNCTION  -nan(ind)     0.00    35.96     0  00:00        0.00
  10-0120              JUNCTION  -nan(ind)     0.00    38.01     0  00:00        0.00
  10-0121              JUNCTION  -nan(ind)     0.00    39.00     0  00:00        0.00
  10-0122              JUNCTION  -nan(ind)     0.00    40.88     0  00:00        0.00
  10-0122A             JUNCTION  -nan(ind)     0.00    44.01     0  00:00        0.00
  10-0122B             JUNCTION  -nan(ind)     0.00    47.25     0  00:00        0.00
  10-0123              JUNCTION  -nan(ind)     0.00    50.03     0  00:00        0.00
  10-0124              JUNCTION  -nan(ind)     0.00    50.63     0  00:00        0.00
  10-0125              JUNCTION  -nan(ind)     0.00    50.73     0  00:00        0.00
  10-0126              JUNCTION  -nan(ind)     0.00    51.07     0  00:00        0.00
  10-0127              JUNCTION  -nan(ind)     0.00    52.16     0  00:00        0.00
  10-0128              JUNCTION  -nan(ind)     0.00    53.91     0  00:00        0.00
  10-0131              JUNCTION  -nan(ind)     0.00    61.27     0  00:00        0.00
  10-0132              JUNCTION  -nan(ind)     0.00    70.47     0  00:00        0.00
  10-0133              JUNCTION  -nan(ind)     0.00    72.88     0  00:00        0.00
  10-0133A             JUNCTION  -nan(ind)     0.00    73.83     0  00:00        0.00
  10-0134              JUNCTION  -nan(ind)     0.00    76.01     0  00:00        0.00
  10-0135              JUNCTION  -nan(ind)     0.00    78.03     0  00:00        0.00
  10-0136              JUNCTION  -nan(ind)     0.00    82.43     0  00:00        0.00
  10-0137              JUNCTION  -nan(ind)     0.00    86.00     0  00:00        0.00
  10-0138              JUNCTION  -nan(ind)     0.00    90.47     0  00:00        0.00
  10-0139              JUNCTION  -nan(ind)     0.00    95.46     0  00:00        0.00
  10-0139A             JUNCTION  -nan(ind)     0.00    98.00     0  00:00        0.00
  10-0140              JUNCTION  -nan(ind)     0.00    99.50     0  00:00        0.00
  10-0141              JUNCTION  -nan(ind)     0.00   106.32     0  00:00        0.00
  10-0142              JUNCTION  -nan(ind)     0.00   109.26     0  00:00        0.00
  10-0143              JUNCTION  -nan(ind)     0.00   117.77     0  00:00        0.00
  10-0144              JUNCTION  -nan(ind)     0.00   125.74     0  00:00        0.00
  10-0145              JUNCTION  -nan(ind)     0.00   136.10     0  00:00        0.00
  10-0146              JUNCTION  -nan(ind)     0.00   147.68     0  00:00        0.00
  10-0147              JUNCTION  -nan(ind)     0.00   159.45     0  00:00        0.00
  10-0148              JUNCTION  -nan(ind)     0.00   168.02     0  00:00        0.00
  10-0149              JUNCTION  -nan(ind)     0.00   172.20     0  00:00        0.00
  10-0149A             JUNCTION  -nan(ind)     0.00   173.04     0  00:00        0.00
  10-0155              JUNCTION  -nan(ind)     0.00    55.03     0  00:00        0.00
  10-0156              JUNCTION  -nan(ind)     0.00    57.00     0  00:00        0.00
  10-0157              JUNCTION  -nan(ind)     0.00    57.60     0  00:00        0.00
  10-0158              JUNCTION  -nan(ind)     0.00    60.00     0  00:00        0.00
  10-0160              JUNCTION  -nan(ind)     0.00   106.78     0  00:00        0.00
  10-0161              JUNCTION  -nan(ind)     0.00   112.93     0  00:00        0.00
  10-0162              JUNCTION  -nan(ind)     0.00   126.27     0  00:00        0.00
  10-0163              JUNCTION  -nan(ind)     0.00   127.48     0  00:00        0.00
  10-0164              JUNCTION  -nan(ind)     0.00   130.91     0  00:00        0.00
  10-0165              JUNCTION  -nan(ind)     0.00   134.39     0  00:00        0.00
  10-0166              JUNCTION  -nan(ind)     0.00   136.41     0  00:00        0.00
  10-0167              JUNCTION  -nan(ind)     0.00   140.77     0  00:00        0.00
  10-0170              JUNCTION  -nan(ind)     0.00    58.13     0  00:00        0.00
  10-0170A             JUNCTION  -nan(ind)     0.00    59.16     0  00:00        0.00
  10-0171              JUNCTION  -nan(ind)     0.00    79.97     0  00:00        0.00
  10-0172              JUNCTION  -nan(ind)     0.00    82.66     0  00:00        0.00
  10-0173              JUNCTION  -nan(ind)     0.00   113.45     0  00:00        0.00
  10-0174              JUNCTION  -nan(ind)     0.00   137.44     0  00:00        0.00
  10-0175              JUNCTION  -nan(ind)     0.00   142.78     0  00:00        0.00
  10-0176              JUNCTION  -nan(ind)     0.00   148.46     0  00:00        0.00
  10-0177              JUNCTION  -nan(ind)     0.00   153.25     0  00:00        0.00
  10-0178              JUNCTION  -nan(ind)     0.00    83.60     0  00:00        0.00
  10-0179              JUNCTION  -nan(ind)     0.00    84.46     0  00:00        0.00
  10-0180              JUNCTION  -nan(ind)     0.00    85.53     0  00:00        0.00
  10-0181              JUNCTION  -nan(ind)     0.00   111.97     0  00:00        0.00
  10-0182              JUNCTION  -nan(ind)     0.00   117.67     0  00:00        0.00
  10-0183              JUNCTION  -nan(ind)     0.00   144.98     0  00:00        0.00
  10-0184              JUNCTION  -nan(ind)     0.00    86.58     0  00:00        0.00
  10-0185              JUNCTION  -nan(ind)     0.00    88.00     0  00:00        0.00
  10-0186              JUNCTION  -nan(ind)     0.00   157.49     0  00:00        0.00
  10-0187              JUNCTION  -nan(ind)     0.00   163.31     0  00:00        0.00
  10-0188              JUNCTION  -nan(ind)     0.00   164.88     0  00:00        0.00
  10-0189              JUNCTION  -nan(ind)     0.00   165.02     0  00:00        0.00
  10-0190              JUNCTION  -nan(ind)     0.00   180.90     0  00:00        0.00
  10-0191              JUNCTION  -nan(ind)     0.00   176.08     0  00:00        0.00
  10-0192              JUNCTION  -nan(ind)     0.00   173.33     0  00:00        0.00
  10-0197              JUNCTION  -nan(ind)     0.00   145.94     0  00:00        0.00
  10-0198              JUNCTION  -nan(ind)     0.00   135.51     0  00:00        0.00
  10-0199              JUNCTION  -nan(ind)     0.00   131.09     0  00:00        0.00
  10-0200              JUNCTION  -nan(ind)     0.00     1.58     0  00:00        0.00
  10-0201              JUNCTION  -nan(ind)     0.00     7.50     0  00:00        0.00
  10-0202              JUNCTION  -nan(ind)     0.00     8.49     0  00:00        0.00
  10-0203              JUNCTION  -nan(ind)     0.00     9.73     0  00:00        0.00
  10-0204              JUNCTION  -nan(ind)     0.00    10.51     0  00:00        0.00
  10-0205              JUNCTION  -nan(ind)     0.00    11.01     0  00:00        0.00
  10-0206              JUNCTION  -nan(ind)     0.00    11.83     0  00:00        0.00
  10-0207              JUNCTION  -nan(ind)     0.00    12.71     0  00:00        0.00
  10-0208              JUNCTION  -nan(ind)     0.00    13.69     0  00:00        0.00
  10-0209              JUNCTION  -nan(ind)     0.00    14.46     0  00:00        0.00
  10-0210              JUNCTION  -nan(ind)     0.00    15.68     0  00:00        0.00
  10-0211              JUNCTION  -nan(ind)     0.00    18.89     0  00:00        0.00
  10-0213              JUNCTION  -nan(ind)     0.00    34.00     0  00:00        0.00
  10-0214              JUNCTION  -nan(ind)     0.00    35.00     0  00:00        0.00
  10-0215              JUNCTION  -nan(ind)     0.00    36.00     0  00:00        0.00
  10-0216              JUNCTION  -nan(ind)     0.00    53.00     0  00:00        0.00
  10-0217              JUNCTION  -nan(ind)     0.00    64.65     0  00:00        0.00
  10-0218              JUNCTION  -nan(ind)     0.00    64.88     0  00:00        0.00
  10-0219              JUNCTION  -nan(ind)     0.00    65.00     0  00:00        0.00
  10-0220              JUNCTION  -nan(ind)     0.00    65.89     0  00:00        0.00
  10-0221              JUNCTION  -nan(ind)     0.00    78.74     0  00:00        0.00
  10-0222              JUNCTION  -nan(ind)     0.00    94.15     0  00:00        0.00
  10-0223              JUNCTION  -nan(ind)     0.00   106.29     0  00:00        0.00
  10-0224              JUNCTION  -nan(ind)     0.00   118.80     0  00:00        0.00
  10-0225              JUNCTION  -nan(ind)     0.00   141.18     0  00:00        0.00
  10-0226              JUNCTION  -nan(ind)     0.00   162.30     0  00:00        0.00
  10-0227              JUNCTION  -nan(ind)     0.00   164.05     0  00:00        0.00
  10-0228              JUNCTION  -nan(ind)     0.00   168.90     0  00:00        0.00
  10-0229              JUNCTION  -nan(ind)     0.00   178.38     0  00:00        0.00
  10-0230              JUNCTION  -nan(ind)     0.00   179.68     0  00:00        0.00
  10-0231              JUNCTION  -nan(ind)     0.00   180.93     0  00:00        0.00
  10-0231A             JUNCTION  -nan(ind)     0.00   181.89     0  00:00        0.00
  10-0232              JUNCTION  -nan(ind)     0.00   182.34     0  00:00        0.00
  10-0233              JUNCTION  -nan(ind)     0.00   183.80     0  00:00        0.00
  10-0234              JUNCTION  -nan(ind)     0.00   184.00     0  00:00        0.00
  10-0234A             JUNCTION  -nan(ind)     0.00   184.22     0  00:00        0.00
  10-0234B             JUNCTION  -nan(ind)     0.00   187.42     0  00:00        0.00
  10-0234C             JUNCTION  -nan(ind)     0.00   190.00     0  00:00        0.00
  10-0236              JUNCTION  -nan(ind)     0.00   185.79     0  00:00        0.00
  10-0237              JUNCTION  -nan(ind)     0.00   184.59     0  00:00        0.00
  10-0238              JUNCTION  -nan(ind)     0.00   185.12     0  00:00        0.00
  10-0239              JUNCTION  -nan(ind)     0.00   185.30     0  00:00        0.00
  10-0240              JUNCTION  -nan(ind)     0.00   191.47     0  00:00        0.00
  10-0240A             JUNCTION  -nan(ind)     0.00   191.60     0  00:00        0.00
  10-0240B             JUNCTION  -nan(ind)     0.00   192.40     0  00:00        0.00
  10-0240C             JUNCTION  -nan(ind)     0.00   196.00     0  00:00        0.00
  10-0240D             JUNCTION  -nan(ind)     0.00   199.00     0  00:00        0.00
  10-0241              JUNCTION  -nan(ind)     0.00   193.57     0  00:00        0.00
  10-0242              JUNCTION  -nan(ind)     0.00   197.00     0  00:00        0.00
  10-0243              JUNCTION  -nan(ind)     0.00   207.62     0  00:00        0.00
  10-0250              JUNCTION  -nan(ind)     0.00   201.00     0  00:00        0.00
  10-0251              JUNCTION  -nan(ind)     0.00   201.30     0  00:00        0.00
  10-0252              JUNCTION  -nan(ind)     0.00   203.53     0  00:00        0.00
  10-0253              JUNCTION  -nan(ind)     0.00   203.96     0  00:00        0.00
  10-0253A             JUNCTION  -nan(ind)     0.00     0.00     0  00:00        0.00
  10-0254              JUNCTION  -nan(ind)     0.00   204.44     0  00:00        0.00
  10-0255              JUNCTION  -nan(ind)     0.00   204.00     0  00:00        0.00
  10-0256              JUNCTION  -nan(ind)     0.00   205.96     0  00:00        0.00
  10-0257              JUNCTION  -nan(ind)     0.00   206.12     0  00:00        0.00
  10-0258              JUNCTION  -nan(ind)     0.00   206.10     0  00:00        0.00
  10-0259              JUNCTION  -nan(ind)     0.00   206.70     0  00:00        0.00
  10-0260              JUNCTION  -nan(ind)     0.00   207.19     0  00:00        0.00
  10-0261              JUNCTION  -nan(ind)     0.00   208.12     0  00:00        0.00
  10-0261A             JUNCTION  -nan(ind)     0.00   208.48     0  00:00        0.00
  10-0262              JUNCTION  -nan(ind)     0.00   209.21     0  00:00        0.00
  10-0262A             JUNCTION  -nan(ind)     0.00   209.63     0  00:00        0.00
  10-0263              JUNCTION  -nan(ind)     0.00   210.54     0  00:00        0.00
  10-0263A             JUNCTION  -nan(ind)     0.00   212.65     0  00:00        0.00
  10-0263B             JUNCTION  -nan(ind)     0.00   213.18     0  00:00        0.00
  10-0264              JUNCTION  -nan(ind)     0.00   238.44     0  00:00        0.00
  10-0264A             JUNCTION  -nan(ind)     0.00   240.66     0  00:00        0.00
  10-0264B             JUNCTION  -nan(ind)     0.00   247.21     0  00:00        0.00
  10-0265              JUNCTION  -nan(ind)     0.00   215.40     0  00:00        0.00
  10-0265A             JUNCTION  -nan(ind)     0.00   213.40     0  00:00        0.00
  10-0266              JUNCTION  -nan(ind)     0.00   229.02     0  00:00        0.00
  10-0267              JUNCTION  -nan(ind)     0.00   235.41     0  00:00        0.00
  10-0268              JUNCTION  -nan(ind)     0.00   242.61     0  00:00        0.00
  10-0270              JUNCTION  -nan(ind)     0.00   244.50     0  00:00        0.00
  10-0271              JUNCTION  -nan(ind)     0.00   248.22     0  00:00        0.00
  10-0271A             JUNCTION  -nan(ind)     0.00   248.68     0  00:00        0.00
  10-0272              JUNCTION  -nan(ind)     0.00   248.88     0  00:00        0.00
  10-0272A             JUNCTION  -nan(ind)     0.00   250.00     0  00:00        0.00
  10-0273              JUNCTION  -nan(ind)     0.00   250.10     0  00:00        0.00
  10-0274              JUNCTION  -nan(ind)     0.00   250.80     0  00:00        0.00
  10-0275              JUNCTION  -nan(ind)     0.00   251.12     0  00:00        0.00
  10-0276              JUNCTION  -nan(ind)     0.00   251.44     0  00:00        0.00
  10-0277              JUNCTION  -nan(ind)     0.00     0.00     0  00:00        0.00
  10-0278              JUNCTION  -nan(ind)     0.00     0.00     0  00:00        0.00
  10-0280              JUNCTION  -nan(ind)     0.00   204.18     0  00:00        0.00
  10-0281              JUNCTION  -nan(ind)     0.00   205.50     0  00:00        0.00
  10-0282              JUNCTION  -nan(ind)     0.00   184.40     0  00:00        0.00
  10-0283              JUNCTION  -nan(ind)     0.00   185.40     0  00:00        0.00
  10-0284              JUNCTION  -nan(ind)     0.00   186.27     0  00:00        0.00
  10-0285              JUNCTION  -nan(ind)     0.00   185.70     0  00:00        0.00
  10-0286              JUNCTION  -nan(ind)     0.00   186.29     0  00:00        0.00
  10-0287              JUNCTION  -nan(ind)     0.00   187.01     0  00:00        0.00
  10-0288              JUNCTION  -nan(ind)     0.00   186.42     0  00:00        0.00
  10-0290              JUNCTION  -nan(ind)     0.00   247.97     0  00:00        0.00
  10-0291              JUNCTION  -nan(ind)     0.00   256.02     0  00:00        0.00
  10-0292              JUNCTION  -nan(ind)     0.00   263.50     0  00:00        0.00
  10-0295              JUNCTION  -nan(ind)     0.00   260.88     0  00:00        0.00
  10-0296              JUNCTION  -nan(ind)     0.00   275.50     0  00:00        0.00
  10-0297              JUNCTION  -nan(ind)     0.00   210.32     0  00:00        0.00
  10-0298              JUNCTION  -nan(ind)     0.00   212.19     0  00:00        0.00
  10-0299              JUNCTION  -nan(ind)     0.00   213.30     0  00:00        0.00
  10-0300              JUNCTION  -nan(ind)     0.00     8.10     0  00:00        0.00
  10-0301              JUNCTION  -nan(ind)     0.00     9.22     0  00:00        0.00
  10-0302              JUNCTION  -nan(ind)     0.00    10.32     0  00:00        0.00
  10-0303              JUNCTION  -nan(ind)     0.00    11.42     0  00:00        0.00
  10-0304              JUNCTION  -nan(ind)     0.00    17.47     0  00:00        0.00
  10-0305              JUNCTION  -nan(ind)     0.00    36.47     0  00:00        0.00
  10-0306              JUNCTION  -nan(ind)     0.00    42.00     0  00:00        0.00
  10-0307              JUNCTION  -nan(ind)     0.00    46.54     0  00:00        0.00
  10-0308              JUNCTION  -nan(ind)     0.00    46.54     0  00:00        0.00
  10-0348              JUNCTION  -nan(ind)     0.00    55.00     0  00:00        0.00
  10-0350              JUNCTION  -nan(ind)     0.00    18.65     0  00:00        0.00
  10-0351              JUNCTION  -nan(ind)     0.00    20.65     0  00:00        0.00
  10-0352              JUNCTION  -nan(ind)     0.00    33.76     0  00:00        0.00
  10-0353              JUNCTION  -nan(ind)     0.00    42.00     0  00:00        0.00
  10-0354              JUNCTION  -nan(ind)     0.00    43.12     0  00:00        0.00
  10-0355              JUNCTION  -nan(ind)     0.00    43.95     0  00:00        0.00
  10-0356              JUNCTION  -nan(ind)     0.00    44.88     0  00:00        0.00
  10-0357              JUNCTION  -nan(ind)     0.00    51.44     0  00:00        0.00
  10-0358              JUNCTION  -nan(ind)     0.00    57.52     0  00:00        0.00
  10-0359              JUNCTION  -nan(ind)     0.00    66.42     0  00:00        0.00
  10-0360              JUNCTION  -nan(ind)     0.00    68.93     0  00:00        0.00
  10-0361              JUNCTION  -nan(ind)     0.00    70.88     0  00:00        0.00
  10-0362              JUNCTION  -nan(ind)     0.00    82.89     0  00:00        0.00
  10-0363              JUNCTION  -nan(ind)     0.00   102.90     0  00:00        0.00
  10-0364              JUNCTION  -nan(ind)     0.00   110.36     0  00:00        0.00
  10-0365              JUNCTION  -nan(ind)     0.00   115.95     0  00:00        0.00
  10-0366              JUNCTION  -nan(ind)     0.00   125.78     0  00:00        0.00
  10-0367              JUNCTION  -nan(ind)     0.00   148.81     0  00:00        0.00
  10-0368              JUNCTION  -nan(ind)     0.00   155.58     0  00:00        0.00
  10-0369              JUNCTION  -nan(ind)     0.00   159.67     0  00:00        0.00
  10-0370              JUNCTION  -nan(ind)     0.00   165.02     0  00:00        0.00
  10-0371              JUNCTION  -nan(ind)     0.00   168.44     0  00:00        0.00
  10-0372              JUNCTION  -nan(ind)     0.00   171.66     0  00:00        0.00
  10-0373              JUNCTION  -nan(ind)     0.00   174.30     0  00:00        0.00
  10-0374              JUNCTION  -nan(ind)     0.00   177.59     0  00:00        0.00
  10-0375              JUNCTION  -nan(ind)     0.00   180.89     0  00:00        0.00
  10-0376              JUNCTION  -nan(ind)     0.00   181.00     0  00:00        0.00
  10-0377              JUNCTION  -nan(ind)     0.00   186.93     0  00:00        0.00
  10-0378              JUNCTION  -nan(ind)     0.00   182.65     0  00:00        0.00
  10-0390              JUNCTION  -nan(ind)     0.00    54.19     0  00:00        0.00
  10-0400              JUNCTION  -nan(ind)     0.00    44.33     0  00:00        0.00
  10-0400A             JUNCTION  -nan(ind)     0.00    48.04     0  00:00        0.00
  10-0401              JUNCTION  -nan(ind)     0.00    58.15     0  00:00        0.00
  10-0402              JUNCTION  -nan(ind)     0.00    62.35     0  00:00        0.00
  10-0403              JUNCTION  -nan(ind)     0.00    75.10     0  00:00        0.00
  10-0404              JUNCTION  -nan(ind)     0.00    78.28     0  00:00        0.00
  10-0405              JUNCTION  -nan(ind)     0.00   101.44     0  00:00        0.00
  10-0406              JUNCTION  -nan(ind)     0.00   106.10     0  00:00        0.00
  10-0407              JUNCTION  -nan(ind)     0.00   123.70     0  00:00        0.00
  10-0408              JUNCTION  -nan(ind)     0.00   129.80     0  00:00        0.00
  10-0409              JUNCTION  -nan(ind)     0.00   131.70     0  00:00        0.00
  10-0410              JUNCTION  -nan(ind)     0.00   133.47     0  00:00        0.00
  10-0411              JUNCTION  -nan(ind)     0.00   140.38     0  00:00        0.00
  10-0412              JUNCTION  -nan(ind)     0.00   140.90     0  00:00        0.00
  10-0413              JUNCTION  -nan(ind)     0.00   153.00     0  00:00        0.00
  10-0414              JUNCTION  -nan(ind)     0.00   154.40     0  00:00        0.00
  10-0415              JUNCTION  -nan(ind)     0.00   166.00     0  00:00        0.00
  10-0416              JUNCTION  -nan(ind)     0.00   171.00     0  00:00        0.00
  10-0450              JUNCTION  -nan(ind)     0.00    98.50     0  00:00        0.00
  10-0451              JUNCTION  -nan(ind)     0.00   116.20     0  00:00        0.00
  10-0452              JUNCTION  -nan(ind)     0.00   120.10     0  00:00        0.00
  10-0453              JUNCTION  -nan(ind)     0.00   121.10     0  00:00        0.00
  10-0454              JUNCTION  -nan(ind)     0.00   121.76     0  00:00        0.00
  10-0456              JUNCTION  -nan(ind)     0.00   144.42     0  00:00        0.00
  10-0457              JUNCTION  -nan(ind)     0.00   127.80     0  00:00        0.00
  10-0458              JUNCTION  -nan(ind)     0.00   135.69     0  00:00        0.00
  10-0500              JUNCTION  -nan(ind)     0.00     9.30     0  00:00        0.00
  10-0501              JUNCTION  -nan(ind)     0.00     9.42     0  00:00        0.00
  10-0502              JUNCTION  -nan(ind)     0.00    10.00     0  00:00        0.00
  10-0503              JUNCTION  -nan(ind)     0.00    11.00     0  00:00        0.00
  10-0504              JUNCTION  -nan(ind)     0.00    33.95     0  00:00        0.00
  10-0505              JUNCTION  -nan(ind)     0.00    41.04     0  00:00        0.00
  10-0506              JUNCTION  -nan(ind)     0.00    43.59     0  00:00        0.00
  10-0507              JUNCTION  -nan(ind)     0.00    44.50     0  00:00        0.00
  10-0508              JUNCTION  -nan(ind)     0.00    45.41     0  00:00        0.00
  10-0509              JUNCTION  -nan(ind)     0.00    51.61     0  00:00        0.00
  10-0510              JUNCTION  -nan(ind)     0.00    53.97     0  00:00        0.00
  10-0511              JUNCTION  -nan(ind)     0.00    54.35     0  00:00        0.00
  10-0512              JUNCTION  -nan(ind)     0.00    54.35     0  00:00        0.00
  10-0513              JUNCTION  -nan(ind)     0.00    60.35     0  00:00        0.00
  10-0514              JUNCTION  -nan(ind)     0.00    71.54     0  00:00        0.00
  10-0514A             JUNCTION  -nan(ind)     0.00    78.30     0  00:00        0.00
  10-0514B             JUNCTION  -nan(ind)     0.00    79.66     0  00:00        0.00
  10-0514C             JUNCTION  -nan(ind)     0.00    80.49     0  00:00        0.00
  10-0515              JUNCTION  -nan(ind)     0.00    87.79     0  00:00        0.00
  10-0515A             JUNCTION  -nan(ind)     0.00    91.68     0  00:00        0.00
  10-0515B             JUNCTION  -nan(ind)     0.00    97.00     0  00:00        0.00
  10-0515C             JUNCTION  -nan(ind)     0.00    99.20     0  00:00        0.00
  10-0515D             JUNCTION  -nan(ind)     0.00    99.60     0  00:00        0.00
  10-0515E             JUNCTION  -nan(ind)     0.00   100.00     0  00:00        0.00
  10-0516              JUNCTION  -nan(ind)     0.00   106.00     0  00:00        0.00
  10-0517              JUNCTION  -nan(ind)     0.00   119.52     0  00:00        0.00
  10-0518              JUNCTION  -nan(ind)     0.00   135.46     0  00:00        0.00
  10-0519              JUNCTION  -nan(ind)     0.00   138.05     0  00:00        0.00
  10-0520              JUNCTION  -nan(ind)     0.00   138.56     0  00:00        0.00
  10-0521              JUNCTION  -nan(ind)     0.00   139.06     0  00:00        0.00
  10-0522              JUNCTION  -nan(ind)     0.00   142.43     0  00:00        0.00
  10-0523              JUNCTION  -nan(ind)     0.00   159.44     0  00:00        0.00
  10-0524              JUNCTION  -nan(ind)     0.00   173.42     0  00:00        0.00
  10-0525              JUNCTION  -nan(ind)     0.00   181.00     0  00:00        0.00
  10-0526              JUNCTION  -nan(ind)     0.00   106.58     0  00:00        0.00
  10-0530              JUNCTION  -nan(ind)     0.00    55.86     0  00:00        0.00
  10-0531              JUNCTION  -nan(ind)     0.00    57.42     0  00:00        0.00
  10-0532              JUNCTION  -nan(ind)     0.00    63.00     0  00:00        0.00
  10-0533              JUNCTION  -nan(ind)     0.00    67.55     0  00:00        0.00
  10-0534              JUNCTION  -nan(ind)     0.00    72.52     0  00:00        0.00
  10-0535              JUNCTION  -nan(ind)     0.00    44.09     0  00:00        0.00
  10-0536              JUNCTION  -nan(ind)     0.00    41.21     0  00:00        0.00
  10-0537              JUNCTION  -nan(ind)     0.00    40.78     0  00:00        0.00
  10-0538              JUNCTION  -nan(ind)     0.00    39.79     0  00:00        0.00
  10-0540              JUNCTION  -nan(ind)     0.00    61.63     0  00:00        0.00
  10-0541              JUNCTION  -nan(ind)     0.00    62.31     0  00:00        0.00
  10-0542              JUNCTION  -nan(ind)     0.00    63.03     0  00:00        0.00
  10-0543              JUNCTION  -nan(ind)     0.00    66.13     0  00:00        0.00
  10-0544              JUNCTION  -nan(ind)     0.00    69.74     0  00:00        0.00
  10-0545              JUNCTION  -nan(ind)     0.00   101.16     0  00:00        0.00
  10-0546              JUNCTION  -nan(ind)     0.00   115.80     0  00:00        0.00
  10-0547              JUNCTION  -nan(ind)     0.00   118.09     0  00:00        0.00
  10-0548              JUNCTION  -nan(ind)     0.00   121.77     0  00:00        0.00
  10-0549              JUNCTION  -nan(ind)     0.00   109.26     0  00:00        0.00
  10-0550              JUNCTION  -nan(ind)     0.00   101.15     0  00:00        0.00
  10-0551              JUNCTION  -nan(ind)     0.00    98.29     0  00:00        0.00
  10-0552              JUNCTION  -nan(ind)     0.00    94.57     0  00:00        0.00
  10-0553              JUNCTION  -nan(ind)     0.00    90.13     0  00:00        0.00
  10-0554              JUNCTION  -nan(ind)     0.00    83.71     0  00:00        0.00
  10-0555              JUNCTION  -nan(ind)     0.00   113.62     0  00:00        0.00
  10-0556              JUNCTION  -nan(ind)     0.00    92.00     0  00:00        0.00
  10-0557              JUNCTION  -nan(ind)     0.00    82.77     0  00:00        0.00
  10-0558              JUNCTION  -nan(ind)     0.00    81.71     0  00:00        0.00
  10-0559              JUNCTION  -nan(ind)     0.00    76.00     0  00:00        0.00
  10-0560              JUNCTION  -nan(ind)     0.00    70.03     0  00:00        0.00
  10-0561              JUNCTION  -nan(ind)     0.00    65.20     0  00:00        0.00
  10-0562              JUNCTION  -nan(ind)     0.00    58.92     0  00:00        0.00
  10-0563              JUNCTION  -nan(ind)     0.00    49.05     0  00:00        0.00
  10-0564              JUNCTION  -nan(ind)     0.00    44.11     0  00:00        0.00
  10-0565              JUNCTION  -nan(ind)     0.00    26.58     0  00:00        0.00
  10-0566              JUNCTION  -nan(ind)     0.00    22.06     0  00:00        0.00
  10-0567              JUNCTION  -nan(ind)     0.00    59.75     0  00:00        0.00
  10-0568              JUNCTION  -nan(ind)     0.00   119.00     0  00:00        0.00
  10-0569              JUNCTION  -nan(ind)     0.00   118.11     0  00:00        0.00
  10-0570              JUNCTION  -nan(ind)     0.00    17.79     0  00:00        0.00
  10-0571              JUNCTION  -nan(ind)     0.00    28.60     0  00:00        0.00
  10-0572              JUNCTION  -nan(ind)     0.00    39.79     0  00:00        0.00
  10-0573              JUNCTION  -nan(ind)     0.00    40.93     0  00:00        0.00
  10-0574              JUNCTION  -nan(ind)     0.00    42.58     0  00:00        0.00
  10-0575              JUNCTION  -nan(ind)     0.00    45.00     0  00:00        0.00
  10-0576              JUNCTION  -nan(ind)     0.00    13.00     0  00:00        0.00
  10-0600              JUNCTION  -nan(ind)     0.00   204.05     0  00:00        0.00
  10-0601              JUNCTION  -nan(ind)     0.00   205.46     0  00:00        0.00
  10-0602              JUNCTION  -nan(ind)     0.00   206.31     0  00:00        0.00
  10-0603              JUNCTION  -nan(ind)     0.00   207.20     0  00:00        0.00
  10-0604              JUNCTION  -nan(ind)     0.00   208.37     0  00:00        0.00
  10-0605              JUNCTION  -nan(ind)     0.00   209.24     0  00:00        0.00
  10-0621              JUNCTION  -nan(ind)     0.00   205.80     0  00:00        0.00
  10-0622              JUNCTION  -nan(ind)     0.00   212.27     0  00:00        0.00
  10-0623              JUNCTION  -nan(ind)     0.00   215.80     0  00:00        0.00
  10-0624              JUNCTION  -nan(ind)     0.00   219.85     0  00:00        0.00
  10-0625              JUNCTION  -nan(ind)     0.00   220.39     0  00:00        0.00
  10-0626              JUNCTION  -nan(ind)     0.00   222.90     0  00:00        0.00
  10-0627              JUNCTION  -nan(ind)     0.00   230.00     0  00:00        0.00
  10-0628              JUNCTION  -nan(ind)     0.00   240.00     0  00:00        0.00
  10-0634              JUNCTION  -nan(ind)     0.00   207.70     0  00:00        0.00
  10-0635              JUNCTION  -nan(ind)     0.00   213.60     0  00:00        0.00
  10-0700              JUNCTION  -nan(ind)     0.00   182.73     0  00:00        0.00
  10-0701              JUNCTION  -nan(ind)     0.00   182.81     0  00:00        0.00
  10-0702              JUNCTION  -nan(ind)     0.00   183.65     0  00:00        0.00
  10-0703              JUNCTION  -nan(ind)     0.00   184.23     0  00:00        0.00
  10-0704              JUNCTION  -nan(ind)     0.00   185.10     0  00:00        0.00
  10-0705              JUNCTION  -nan(ind)     0.00   189.61     0  00:00        0.00
  10-0706              JUNCTION  -nan(ind)     0.00   193.35     0  00:00        0.00
  10-0707              JUNCTION  -nan(ind)     0.00   183.39     0  00:00        0.00
  10-0708              JUNCTION  -nan(ind)     0.00   183.19     0  00:00        0.00
  10-0710              JUNCTION  -nan(ind)     0.00    89.54     0  00:00        0.00
  10-0711              JUNCTION  -nan(ind)     0.00    86.83     0  00:00        0.00
  10-0712              JUNCTION  -nan(ind)     0.00    80.08     0  00:00        0.00
  10-0713              JUNCTION  -nan(ind)     0.00    65.57     0  00:00        0.00
  10-0714              JUNCTION  -nan(ind)     0.00    49.92     0  00:00        0.00
  10-0715              JUNCTION  -nan(ind)     0.00    64.30     0  00:00        0.00
  10-0716              JUNCTION  -nan(ind)     0.00    62.85     0  00:00        0.00
  10-0717              JUNCTION  -nan(ind)     0.00    76.48     0  00:00        0.00
  10-0718              JUNCTION  -nan(ind)     0.00    72.15     0  00:00        0.00
  10-0719              JUNCTION  -nan(ind)     0.00    80.02     0  00:00        0.00
  10-0720              JUNCTION  -nan(ind)     0.00    77.44     0  00:00        0.00
  10-0721              JUNCTION  -nan(ind)     0.00    63.20     0  00:00        0.00
  10-0722              JUNCTION  -nan(ind)     0.00    51.82     0  00:00        0.00
  10-0723              JUNCTION  -nan(ind)     0.00    44.13     0  00:00        0.00
  10-0724              JUNCTION  -nan(ind)     0.00    43.07     0  00:00        0.00
  10-0725              JUNCTION  -nan(ind)     0.00    41.54     0  00:00        0.00
  10-0726              JUNCTION  -nan(ind)     0.00    40.46     0  00:00        0.00
  10-0727              JUNCTION  -nan(ind)     0.00    36.11     0  00:00        0.00
  10-0728              JUNCTION  -nan(ind)     0.00    35.34     0  00:00        0.00
  10-0729              JUNCTION  -nan(ind)     0.00    28.81     0  00:00        0.00
  10-0730              JUNCTION  -nan(ind)     0.00    19.41     0  00:00        0.00
  10-0731              JUNCTION  -nan(ind)     0.00    17.98     0  00:00        0.00
  10-0732              JUNCTION  -nan(ind)     0.00    16.41     0  00:00        0.00
  10-0733              JUNCTION  -nan(ind)     0.00    15.25     0  00:00        0.00
  10-0734              JUNCTION  -nan(ind)     0.00    14.38     0  00:00        0.00
  10-0735              JUNCTION  -nan(ind)     0.00    13.57     0  00:00        0.00
  10-0736              JUNCTION  -nan(ind)     0.00    12.33     0  00:00        0.00
  10-0740              JUNCTION  -nan(ind)     0.00    83.95     0  00:00        0.00
  10-0741              JUNCTION  -nan(ind)     0.00   103.50     0  00:00        0.00
  10-0742              JUNCTION  -nan(ind)     0.00   105.00     0  00:00        0.00
  10-0742A             JUNCTION  -nan(ind)     0.00    72.23     0  00:00        0.00
  10-0743              JUNCTION  -nan(ind)     0.00   118.19     0  00:00        0.00
  10-0744              JUNCTION  -nan(ind)     0.00   130.06     0  00:00        0.00
  10-0745              JUNCTION  -nan(ind)     0.00     6.10     0  00:00        0.00
  10-0746              JUNCTION  -nan(ind)     0.00   152.86     0  00:00        0.00
  10-0746A             JUNCTION  -nan(ind)     0.00   152.11     0  00:00        0.00
  10-0747              JUNCTION  -nan(ind)     0.00   154.01     0  00:00        0.00
  10-0748              JUNCTION  -nan(ind)     0.00   156.66     0  00:00        0.00
  10-0749              JUNCTION  -nan(ind)     0.00   157.27     0  00:00        0.00
  10-0750              JUNCTION  -nan(ind)     0.00   159.05     0  00:00        0.00
  10-0751              JUNCTION  -nan(ind)     0.00   161.90     0  00:00        0.00
  10-0752              JUNCTION  -nan(ind)     0.00   169.94     0  00:00        0.00
  10-0755              JUNCTION  -nan(ind)     0.00   186.86     0  00:00        0.00
  10-0756              JUNCTION  -nan(ind)     0.00   188.85     0  00:00        0.00
  10-0757              JUNCTION  -nan(ind)     0.00     9.25     0  00:00        0.00
  10-0758              JUNCTION  -nan(ind)     0.00   147.04     0  00:00        0.00
  10-0759              JUNCTION  -nan(ind)     0.00   149.35     0  00:00        0.00
  10-0760              JUNCTION  -nan(ind)     0.00   150.87     0  00:00        0.00
  10-0761              JUNCTION  -nan(ind)     0.00   153.38     0  00:00        0.00
  10-0762              JUNCTION  -nan(ind)     0.00   155.18     0  00:00        0.00
  10-0763              JUNCTION  -nan(ind)     0.00   156.59     0  00:00        0.00
  10-0764              JUNCTION  -nan(ind)     0.00   158.30     0  00:00        0.00
  10-0765              JUNCTION  -nan(ind)     0.00   159.91     0  00:00        0.00
  10-0766              JUNCTION  -nan(ind)     0.00   160.96     0  00:00        0.00
  10-0767              JUNCTION  -nan(ind)     0.00   162.84     0  00:00        0.00
  10-0768              JUNCTION  -nan(ind)     0.00   163.00     0  00:00        0.00
  10-0769              JUNCTION  -nan(ind)     0.00   164.31     0  00:00        0.00
  10-0770              JUNCTION  -nan(ind)     0.00   166.00     0  00:00        0.00
  10-0771              JUNCTION  -nan(ind)     0.00   167.12     0  00:00        0.00
  10-0772              JUNCTION  -nan(ind)     0.00   168.28     0  00:00        0.00
  10-0773              JUNCTION  -nan(ind)     0.00   169.99     0  00:00        0.00
  10-0774              JUNCTION  -nan(ind)     0.00   182.43     0  00:00        0.00
  10-0775              JUNCTION  -nan(ind)     0.00    16.27     0  00:00        0.00
  10-0776              JUNCTION  -nan(ind)     0.00    19.71     0  00:00        0.00
  10-0777              JUNCTION  -nan(ind)     0.00    20.97     0  00:00        0.00
  10-0778              JUNCTION  -nan(ind)     0.00    17.25     0  00:00        0.00
  10-0779              JUNCTION  -nan(ind)     0.00    25.51     0  00:00        0.00
  10-0780              JUNCTION  -nan(ind)     0.00    20.17     0  00:00        0.00
  10-0781              JUNCTION  -nan(ind)     0.00    20.17     0  00:00        0.00
  10-0782              JUNCTION  -nan(ind)     0.00    33.38     0  00:00        0.00
  10-0783              JUNCTION  -nan(ind)     0.00    83.01     0  00:00        0.00
  10-0784              JUNCTION  -nan(ind)     0.00   118.95     0  00:00        0.00
  10-0785              JUNCTION  -nan(ind)     0.00   123.23     0  00:00        0.00
  10-0786              JUNCTION  -nan(ind)     0.00   128.83     0  00:00        0.00
  10-0787              JUNCTION  -nan(ind)     0.00   135.15     0  00:00        0.00
  10-0788              JUNCTION  -nan(ind)     0.00   130.95     0  00:00        0.00
  10-0789              JUNCTION  -nan(ind)     0.00   128.46     0  00:00        0.00
  10-0790              JUNCTION  -nan(ind)     0.00   138.82     0  00:00        0.00
  10-0791              JUNCTION  -nan(ind)     0.00   137.97     0  00:00        0.00
  10-0792              JUNCTION  -nan(ind)     0.00   140.43     0  00:00        0.00
  10-0793              JUNCTION  -nan(ind)     0.00   145.63     0  00:00        0.00
  10-0794              JUNCTION  -nan(ind)     0.00   152.31     0  00:00        0.00
  10-0795              JUNCTION  -nan(ind)     0.00   153.31     0  00:00        0.00
  10-0796              JUNCTION  -nan(ind)     0.00   154.70     0  00:00        0.00
  10-0797              JUNCTION  -nan(ind)     0.00   155.43     0  00:00        0.00
  10-0798              JUNCTION  -nan(ind)     0.00   162.36     0  00:00        0.00
  10-0799              JUNCTION  -nan(ind)     0.00   163.35     0  00:00        0.00
  10-0800              JUNCTION  -nan(ind)     0.00   169.79     0  00:00        0.00
  10-0801              JUNCTION  -nan(ind)     0.00   175.56     0  00:00        0.00
  10-0802              JUNCTION  -nan(ind)     0.00   130.04     0  00:00        0.00
  10-0803              JUNCTION  -nan(ind)     0.00   140.85     0  00:00        0.00
  10-0804              JUNCTION  -nan(ind)     0.00   147.87     0  00:00        0.00
  10-0805              JUNCTION  -nan(ind)     0.00   153.39     0  00:00        0.00
  10-0806              JUNCTION  -nan(ind)     0.00   157.11     0  00:00        0.00
  10-0807              JUNCTION  -nan(ind)     0.00   159.84     0  00:00        0.00
  10-0808              JUNCTION  -nan(ind)     0.00   159.13     0  00:00        0.00
  10-0809              JUNCTION  -nan(ind)     0.00   165.96     0  00:00        0.00
  10-0810              JUNCTION  -nan(ind)     0.00   170.34     0  00:00        0.00
  10-0811              JUNCTION  -nan(ind)     0.00   157.39     0  00:00        0.00
  10-0812              JUNCTION  -nan(ind)     0.00   162.18     0  00:00        0.00
  10-0813              JUNCTION  -nan(ind)     0.00   162.83     0  00:00        0.00
  10-0814              JUNCTION  -nan(ind)     0.00   166.33     0  00:00        0.00
  10-0815              JUNCTION  -nan(ind)     0.00   158.33     0  00:00        0.00
  10-0816              JUNCTION  -nan(ind)     0.00   159.13     0  00:00        0.00
  10-0817              JUNCTION  -nan(ind)     0.00   159.52     0  00:00        0.00
  10-0818              JUNCTION  -nan(ind)     0.00   160.02     0  00:00        0.00
  10-0819              JUNCTION  -nan(ind)     0.00   163.63     0  00:00        0.00
  10-0820              JUNCTION  -nan(ind)     0.00   161.21     0  00:00        0.00
  10-0821              JUNCTION  -nan(ind)     0.00   161.77     0  00:00        0.00
  10-0822              JUNCTION  -nan(ind)     0.00   137.09     0  00:00        0.00
  10-0823              JUNCTION  -nan(ind)     0.00   137.93     0  00:00        0.00
  10-0824              JUNCTION  -nan(ind)     0.00   138.43     0  00:00        0.00
  10-0825              JUNCTION  -nan(ind)     0.00   139.06     0  00:00        0.00
  10-0826              JUNCTION  -nan(ind)     0.00   142.39     0  00:00        0.00
  10-0827              JUNCTION  -nan(ind)     0.00   157.34     0  00:00        0.00
  10-0828              JUNCTION  -nan(ind)     0.00   143.77     0  00:00        0.00
  10-0829              JUNCTION  -nan(ind)     0.00   144.45     0  00:00        0.00
  10-0830              JUNCTION  -nan(ind)     0.00   148.50     0  00:00        0.00
  10-0831              JUNCTION  -nan(ind)     0.00   147.53     0  00:00        0.00
  10-0832              JUNCTION  -nan(ind)     0.00   148.61     0  00:00        0.00
  10-0833              JUNCTION  -nan(ind)     0.00   156.66     0  00:00        0.00
  10-0902              JUNCTION  -nan(ind)     0.00   252.00     0  00:00        0.00
  10-0903              JUNCTION  -nan(ind)     0.00   253.00     0  00:00        0.00
  10-0904              JUNCTION  -nan(ind)     0.00   262.83     0  00:00        0.00
  10-0906              JUNCTION  -nan(ind)     0.00   251.31     0  00:00        0.00
  10-0907              JUNCTION  -nan(ind)     0.00   258.72     0  00:00        0.00
  10-0910              JUNCTION  -nan(ind)     0.00   159.68     0  00:00        0.00
  10-0911              JUNCTION  -nan(ind)     0.00   146.04     0  00:00        0.00
  10-0912              JUNCTION  -nan(ind)     0.00   139.33     0  00:00        0.00
  10-0913              JUNCTION  -nan(ind)     0.00   137.45     0  00:00        0.00
  10-0914              JUNCTION  -nan(ind)     0.00   134.45     0  00:00        0.00
  10-0915              JUNCTION  -nan(ind)     0.00   126.06     0  00:00        0.00
  10-0916              JUNCTION  -nan(ind)     0.00   128.40     0  00:00        0.00
  10-0917              JUNCTION  -nan(ind)     0.00   103.46     0  00:00        0.00
  10-0918              JUNCTION  -nan(ind)     0.00    89.38     0  00:00        0.00
  10-0919              JUNCTION  -nan(ind)     0.00   126.46     0  00:00        0.00
  10-0920              JUNCTION  -nan(ind)     0.00   128.23     0  00:00        0.00
  10-0921              JUNCTION  -nan(ind)     0.00   128.95     0  00:00        0.00
  10-0922              JUNCTION  -nan(ind)     0.00   129.86     0  00:00        0.00
  10-0923              JUNCTION  -nan(ind)     0.00   137.00     0  00:00        0.00
  10-0924              JUNCTION  -nan(ind)     0.00   138.69     0  00:00        0.00
  10-0925              JUNCTION  -nan(ind)     0.00   144.64     0  00:00        0.00
  10-0926              JUNCTION  -nan(ind)     0.00   105.50     0  00:00        0.00
  10-0927              JUNCTION  -nan(ind)     0.00   155.05     0  00:00        0.00
  10-0928              JUNCTION  -nan(ind)     0.00   145.81     0  00:00        0.00
  10-0929              JUNCTION  -nan(ind)     0.00   149.81     0  00:00        0.00
  10-0930              JUNCTION  -nan(ind)     0.00   156.98     0  00:00        0.00
  10-0931              JUNCTION  -nan(ind)     0.00   149.30     0  00:00        0.00
  10-0932              JUNCTION  -nan(ind)     0.00   160.00     0  00:00        0.00
  10-0933              JUNCTION  -nan(ind)     0.00   150.31     0  00:00        0.00
  10-0934              JUNCTION  -nan(ind)     0.00   151.04     0  00:00        0.00
  10-0935              JUNCTION  -nan(ind)     0.00   154.72     0  00:00        0.00
  10-0936              JUNCTION  -nan(ind)     0.00   170.27     0  00:00        0.00
  10-0937              JUNCTION  -nan(ind)     0.00   158.95     0  00:00        0.00
  10-0940              JUNCTION  -nan(ind)     0.00    59.48     0  00:00        0.00
  10-0941              JUNCTION  -nan(ind)     0.00    60.83     0  00:00        0.00
  10-0942              JUNCTION  -nan(ind)     0.00    62.46     0  00:00        0.00
  10-0943              JUNCTION  -nan(ind)     0.00    71.77     0  00:00        0.00
  10-0944              JUNCTION  -nan(ind)     0.00    65.04     0  00:00        0.00
  10-0945              JUNCTION  -nan(ind)     0.00    70.40     0  00:00        0.00
  10-0946              JUNCTION  -nan(ind)     0.00    80.99     0  00:00        0.00
  10-0947              JUNCTION  -nan(ind)     0.00    67.01     0  00:00        0.00
  10-0948              JUNCTION  -nan(ind)     0.00    73.24     0  00:00        0.00
  10-0949              JUNCTION  -nan(ind)     0.00    79.74     0  00:00        0.00
  10-0950              JUNCTION  -nan(ind)     0.00    81.81     0  00:00        0.00
  10-0951              JUNCTION  -nan(ind)     0.00    83.95     0  00:00        0.00
  10-0952              JUNCTION  -nan(ind)     0.00   111.12     0  00:00        0.00
  10-0953              JUNCTION  -nan(ind)     0.00    71.89     0  00:00        0.00
  10-0954              JUNCTION  -nan(ind)     0.00    78.01     0  00:00        0.00
  10-0955              JUNCTION  -nan(ind)     0.00    80.03     0  00:00        0.00
  10-0956              JUNCTION  -nan(ind)     0.00    57.00     0  00:00        0.00
  10-0957              JUNCTION  -nan(ind)     0.00    83.52     0  00:00        0.00
  10-0958              JUNCTION  -nan(ind)     0.00    79.74     0  00:00        0.00
  10-0959              JUNCTION  -nan(ind)     0.00   160.03     0  00:00        0.00
  10-0960              JUNCTION  -nan(ind)     0.00   168.99     0  00:00        0.00
  10-0961              JUNCTION  -nan(ind)     0.00   173.24     0  00:00        0.00
  10-0962              JUNCTION  -nan(ind)     0.00   175.25     0  00:00        0.00
  10-0963              JUNCTION  -nan(ind)     0.00   179.91     0  00:00        0.00
  10-0964              JUNCTION  -nan(ind)     0.00   182.12     0  00:00        0.00
  10-0965              JUNCTION  -nan(ind)     0.00   161.40     0  00:00        0.00
  10-0966              JUNCTION  -nan(ind)     0.00   181.90     0  00:00        0.00
  10-0967              JUNCTION  -nan(ind)     0.00   183.70     0  00:00        0.00
  10-0968              JUNCTION  -nan(ind)     0.00   166.00     0  00:00        0.00
  10-0969              JUNCTION  -nan(ind)     0.00   180.01     0  00:00        0.00
  10-0970              JUNCTION  -nan(ind)     0.00   185.30     0  00:00        0.00
  10-0971              JUNCTION  -nan(ind)     0.00   188.70     0  00:00        0.00
  10-0972              JUNCTION  -nan(ind)     0.00   150.89     0  00:00        0.00
  10-0973              JUNCTION  -nan(ind)     0.00   166.93     0  00:00        0.00
  10-0974              JUNCTION  -nan(ind)     0.00   152.55     0  00:00        0.00
  10-0975              JUNCTION  -nan(ind)     0.00   154.31     0  00:00        0.00
  10-0976              JUNCTION  -nan(ind)     0.00   156.56     0  00:00        0.00
  10-0977              JUNCTION  -nan(ind)     0.00   170.29     0  00:00        0.00
  10-0978              JUNCTION  -nan(ind)     0.00   170.15     0  00:00        0.00
  10-0979              JUNCTION  -nan(ind)     0.00   171.74     0  00:00        0.00
  10-0980              JUNCTION  -nan(ind)     0.00   175.65     0  00:00        0.00
  10-0981              JUNCTION  -nan(ind)     0.00   181.78     0  00:00        0.00
  10-0982              JUNCTION  -nan(ind)     0.00   188.02     0  00:00        0.00
  10-0983              JUNCTION  -nan(ind)     0.00   173.80     0  00:00        0.00
  10-0984              JUNCTION  -nan(ind)     0.00   175.08     0  00:00        0.00
  10-0985              JUNCTION  -nan(ind)     0.00   177.58     0  00:00        0.00
  10-0986              JUNCTION  -nan(ind)     0.00   182.01     0  00:00        0.00
  10-0987              JUNCTION  -nan(ind)     0.00   186.99     0  00:00        0.00
  10-0988              JUNCTION  -nan(ind)     0.00   188.34     0  00:00        0.00
  10-0989              JUNCTION  -nan(ind)     0.00   190.75     0  00:00        0.00
  10-0990              JUNCTION  -nan(ind)     0.00   192.07     0  00:00        0.00
  10-0991              JUNCTION  -nan(ind)     0.00   192.95     0  00:00        0.00
  10-0992              JUNCTION  -nan(ind)     0.00   194.12     0  00:00        0.00
  10-0993              JUNCTION  -nan(ind)     0.00   194.90     0  00:00        0.00
  10-0994              JUNCTION  -nan(ind)     0.00   195.81     0  00:00        0.00
  10-0995              JUNCTION  -nan(ind)     0.00   198.70     0  00:00        0.00
  10-0996              JUNCTION  -nan(ind)     0.00   196.54     0  00:00        0.00
  10-0997              JUNCTION  -nan(ind)     0.00    13.01     0  00:00        0.00
  10-0998              JUNCTION  -nan(ind)     0.00    14.00     0  00:00        0.00
  10-0999              JUNCTION  -nan(ind)     0.00    17.15     0  00:00        0.00
  10-1001              JUNCTION  -nan(ind)     0.00    84.50     0  00:00        0.00
  10-1002              JUNCTION  -nan(ind)     0.00    99.00     0  00:00        0.00
  10-1003              JUNCTION  -nan(ind)     0.00   103.00     0  00:00        0.00
  10-1004              JUNCTION  -nan(ind)     0.00   108.00     0  00:00        0.00
  10-1005              JUNCTION  -nan(ind)     0.00   139.43     0  00:00        0.00
  10-1006              JUNCTION  -nan(ind)     0.00   136.80     0  00:00        0.00
  10-1007              JUNCTION  -nan(ind)     0.00   135.00     0  00:00        0.00
  10-1008              JUNCTION  -nan(ind)     0.00   126.00     0  00:00        0.00
  10-1009              JUNCTION  -nan(ind)     0.00   115.00     0  00:00        0.00
  10-1010              JUNCTION  -nan(ind)     0.00   113.50     0  00:00        0.00
  10-1011              JUNCTION  -nan(ind)     0.00   164.15     0  00:00        0.00
  10-1012              JUNCTION  -nan(ind)     0.00   164.75     0  00:00        0.00
  10-1013              JUNCTION  -nan(ind)     0.00   159.99     0  00:00        0.00
  10-1014              JUNCTION  -nan(ind)     0.00   163.56     0  00:00        0.00
  10-1015              JUNCTION  -nan(ind)     0.00   160.42     0  00:00        0.00
  10-1016              JUNCTION  -nan(ind)     0.00   161.30     0  00:00        0.00
  10-1017              JUNCTION  -nan(ind)     0.00   154.68     0  00:00        0.00
  10-1018              JUNCTION  -nan(ind)     0.00   152.00     0  00:00        0.00
  10-1019              JUNCTION  -nan(ind)     0.00   150.68     0  00:00        0.00
  10-1020              JUNCTION  -nan(ind)     0.00   108.80     0  00:00        0.00
  10-FM-06             JUNCTION  -nan(ind)     0.00    34.50     0  00:00        0.00
  10-FM01              JUNCTION  -nan(ind)     0.00     6.50     0  00:00        0.00
  100-0001             JUNCTION  -nan(ind)     0.00   102.81     0  00:00        0.00
  100-0002             JUNCTION  -nan(ind)     0.00   103.74     0  00:00        0.00
  100-0003             JUNCTION  -nan(ind)     0.00   105.00     0  00:00        0.00
  100-0004             JUNCTION  -nan(ind)     0.00   134.44     0  00:00        0.00
  100-0005             JUNCTION  -nan(ind)     0.00   154.90     0  00:00        0.00
  100-0006             JUNCTION  -nan(ind)     0.00   105.74     0  00:00        0.00
  100-0007             JUNCTION  -nan(ind)     0.00   107.22     0  00:00        0.00
  100-0008             JUNCTION  -nan(ind)     0.00   108.44     0  00:00        0.00
  100-0009             JUNCTION  -nan(ind)     0.00   129.30     0  00:00        0.00
  100-0010             JUNCTION  -nan(ind)     0.00   135.40     0  00:00        0.00
  100-0011             JUNCTION  -nan(ind)     0.00   138.83     0  00:00        0.00
  100-0012             JUNCTION  -nan(ind)     0.00   157.83     0  00:00        0.00
  101-0001             JUNCTION  -nan(ind)     0.00   302.61     0  00:00        0.00
  101-0002             JUNCTION  -nan(ind)     0.00   293.00     0  00:00        0.00
  101-0003             JUNCTION  -nan(ind)     0.00   277.18     0  00:00        0.00
  101-0004             JUNCTION  -nan(ind)     0.00   275.13     0  00:00        0.00
  101-0005             JUNCTION  -nan(ind)     0.00   277.27     0  00:00        0.00
  101-0007             JUNCTION  -nan(ind)     0.00   279.20     0  00:00        0.00
  101-0008             JUNCTION  -nan(ind)     0.00   273.30     0  00:00        0.00
  101-0009             JUNCTION  -nan(ind)     0.00   265.06     0  00:00        0.00
  101-0010             JUNCTION  -nan(ind)     0.00   273.25     0  00:00        0.00
  101-0011             JUNCTION  -nan(ind)     0.00   275.84     0  00:00        0.00
  101-0012             JUNCTION  -nan(ind)     0.00   300.85     0  00:00        0.00
  101-0013             JUNCTION  -nan(ind)     0.00   292.57     0  00:00        0.00
  101-0014             JUNCTION  -nan(ind)     0.00   296.74     0  00:00        0.00
  101-0015             JUNCTION  -nan(ind)     0.00   251.45     0  00:00        0.00
  101-0016             JUNCTION  -nan(ind)     0.00   279.29     0  00:00        0.00
  101-0017             JUNCTION  -nan(ind)     0.00   284.65     0  00:00        0.00
  101-0018             JUNCTION  -nan(ind)     0.00   292.35     0  00:00        0.00
  101-0019             JUNCTION  -nan(ind)     0.00   300.00     0  00:00        0.00
  101-0020             JUNCTION  -nan(ind)     0.00   230.78     0  00:00        0.00
  101-0021             JUNCTION  -nan(ind)     0.00   251.35     0  00:00        0.00
  103-0001             JUNCTION  -nan(ind)     0.00   242.09     0  00:00        0.00
  103-0002             JUNCTION  -nan(ind)     0.00   241.01     0  00:00        0.00
  103-0003             JUNCTION  -nan(ind)     0.00   235.29     0  00:00        0.00
  103-0004             JUNCTION  -nan(ind)     0.00   232.44     0  00:00        0.00
  103-0005             JUNCTION  -nan(ind)     0.00   223.45     0  00:00        0.00
  103-0007             JUNCTION  -nan(ind)     0.00   217.86     0  00:00        0.00
  103-0008             JUNCTION  -nan(ind)     0.00   243.22     0  00:00        0.00
  103-0009             JUNCTION  -nan(ind)     0.00   239.13     0  00:00        0.00
  103-0010             JUNCTION  -nan(ind)     0.00   216.48     0  00:00        0.00
  103-0011             JUNCTION  -nan(ind)     0.00   215.26     0  00:00        0.00
  103-0012             JUNCTION  -nan(ind)     0.00   213.87     0  00:00        0.00
  103-0013             JUNCTION  -nan(ind)     0.00   244.00     0  00:00        0.00
  103-0014             JUNCTION  -nan(ind)     0.00   236.23     0  00:00        0.00
  103-0015             JUNCTION  -nan(ind)     0.00   233.91     0  00:00        0.00
  103-0016             JUNCTION  -nan(ind)     0.00   212.43     0  00:00        0.00
  103-0017             JUNCTION  -nan(ind)     0.00   204.47     0  00:00        0.00
  103-0018             JUNCTION  -nan(ind)     0.00   203.35     0  00:00        0.00
  103-0019             JUNCTION  -nan(ind)     0.00   202.16     0  00:00        0.00
  103-0020             JUNCTION  -nan(ind)     0.00   200.38     0  00:00        0.00
  103-0021             JUNCTION  -nan(ind)     0.00   190.41     0  00:00        0.00
  103-0023             JUNCTION  -nan(ind)     0.00   182.47     0  00:00        0.00
  103-0024             JUNCTION  -nan(ind)     0.00   181.21     0  00:00        0.00
  103-0025             JUNCTION  -nan(ind)     0.00   178.40     0  00:00        0.00
  103-0027             JUNCTION  -nan(ind)     0.00   173.90     0  00:00        0.00
  103-0028             JUNCTION  -nan(ind)     0.00   171.26     0  00:00        0.00
  103-0029             JUNCTION  -nan(ind)     0.00   170.16     0  00:00        0.00
  103-0030             JUNCTION  -nan(ind)     0.00   169.45     0  00:00        0.00
  103-0031             JUNCTION  -nan(ind)     0.00   169.26     0  00:00        0.00
  103-0033             JUNCTION  -nan(ind)     0.00   167.95     0  00:00        0.00
  103-0034             JUNCTION  -nan(ind)     0.00   165.67     0  00:00        0.00
  103-0035             JUNCTION  -nan(ind)     0.00   164.91     0  00:00        0.00
  103-0036             JUNCTION  -nan(ind)     0.00   163.89     0  00:00        0.00
  103-0038             JUNCTION  -nan(ind)     0.00   152.58     0  00:00        0.00
  103-0039             JUNCTION  -nan(ind)     0.00   151.42     0  00:00        0.00
  103-0040             JUNCTION  -nan(ind)     0.00   150.26     0  00:00        0.00
  103-0041             JUNCTION  -nan(ind)     0.00   145.66     0  00:00        0.00
  103-0043             JUNCTION  -nan(ind)     0.00   138.28     0  00:00        0.00
  103-0044             JUNCTION  -nan(ind)     0.00   137.24     0  00:00        0.00
  103-0046             JUNCTION  -nan(ind)     0.00   133.07     0  00:00        0.00
  103-0047             JUNCTION  -nan(ind)     0.00   131.77     0  00:00        0.00
  103-0048             JUNCTION  -nan(ind)     0.00   137.20     0  00:00        0.00
  103-0049             JUNCTION  -nan(ind)     0.00   242.35     0  00:00        0.00
  103-0050             JUNCTION  -nan(ind)     0.00   234.22     0  00:00        0.00
  103-0051             JUNCTION  -nan(ind)     0.00   216.74     0  00:00        0.00
  103-0052             JUNCTION  -nan(ind)     0.00   184.95     0  00:00        0.00
  103-0053             JUNCTION  -nan(ind)     0.00   317.11     0  00:00        0.00
  103-0054             JUNCTION  -nan(ind)     0.00   306.73     0  00:00        0.00
  103-0055             JUNCTION  -nan(ind)     0.00   291.08     0  00:00        0.00
  103-0056             JUNCTION  -nan(ind)     0.00   283.52     0  00:00        0.00
  103-0057             JUNCTION  -nan(ind)     0.00   280.19     0  00:00        0.00
  103-0058             JUNCTION  -nan(ind)     0.00   263.20     0  00:00        0.00
  103-0059             JUNCTION  -nan(ind)     0.00   285.31     0  00:00        0.00
  103-0060             JUNCTION  -nan(ind)     0.00   282.25     0  00:00        0.00
  103-0060A            JUNCTION  -nan(ind)     0.00   283.16     0  00:00        0.00
  103-0061             JUNCTION  -nan(ind)     0.00   261.56     0  00:00        0.00
  103-0062             JUNCTION  -nan(ind)     0.00   257.74     0  00:00        0.00
  103-0063             JUNCTION  -nan(ind)     0.00   215.45     0  00:00        0.00
  103-0064             JUNCTION  -nan(ind)     0.00   256.67     0  00:00        0.00
  103-0065             JUNCTION  -nan(ind)     0.00   248.89     0  00:00        0.00
  103-0066             JUNCTION  -nan(ind)     0.00   247.68     0  00:00        0.00
  103-0067             JUNCTION  -nan(ind)     0.00   246.47     0  00:00        0.00
  103-0068             JUNCTION  -nan(ind)     0.00   244.24     0  00:00        0.00
  103-0069             JUNCTION  -nan(ind)     0.00   243.35     0  00:00        0.00
  103-0070             JUNCTION  -nan(ind)     0.00   318.79     0  00:00        0.00
  103-0071             JUNCTION  -nan(ind)     0.00   262.05     0  00:00        0.00
  103-0072             JUNCTION  -nan(ind)     0.00   258.95     0  00:00        0.00
  103-0073             JUNCTION  -nan(ind)     0.00   316.21     0  00:00        0.00
  103-0074             JUNCTION  -nan(ind)     0.00   251.20     0  00:00        0.00
  103-0075             JUNCTION  -nan(ind)     0.00   214.20     0  00:00        0.00
  103-0076             JUNCTION  -nan(ind)     0.00   188.22     0  00:00        0.00
  103-0077             JUNCTION  -nan(ind)     0.00   187.35     0  00:00        0.00
  103-0078             JUNCTION  -nan(ind)     0.00   186.13     0  00:00        0.00
  103-0079             JUNCTION  -nan(ind)     0.00   301.19     0  00:00        0.00
  103-0080             JUNCTION  -nan(ind)     0.00   299.81     0  00:00        0.00
  103-0082             JUNCTION  -nan(ind)     0.00   284.66     0  00:00        0.00
  103-0083             JUNCTION  -nan(ind)     0.00   133.93     0  00:00        0.00
  103-0084             JUNCTION  -nan(ind)     0.00   313.70     0  00:00        0.00
  103-0085             JUNCTION  -nan(ind)     0.00   199.71     0  00:00        0.00
  103-0086             JUNCTION  -nan(ind)     0.00   302.98     0  00:00        0.00
  103-0087             JUNCTION  -nan(ind)     0.00   309.50     0  00:00        0.00
  103-0088             JUNCTION  -nan(ind)     0.00   315.95     0  00:00        0.00
  103-0089             JUNCTION  -nan(ind)     0.00   299.53     0  00:00        0.00
  103-0090             JUNCTION  -nan(ind)     0.00   296.79     0  00:00        0.00
  103-0091             JUNCTION  -nan(ind)     0.00   332.58     0  00:00        0.00
  103-0091A            JUNCTION  -nan(ind)     0.00   265.41     0  00:00        0.00
  103-0092             JUNCTION  -nan(ind)     0.00   266.30     0  00:00        0.00
  103-0093             JUNCTION  -nan(ind)     0.00   266.17     0  00:00        0.00
  103-0094             JUNCTION  -nan(ind)     0.00   256.50     0  00:00        0.00
  103-0095             JUNCTION  -nan(ind)     0.00   252.48     0  00:00        0.00
  103-0096             JUNCTION  -nan(ind)     0.00   336.24     0  00:00        0.00
  103-0097             JUNCTION  -nan(ind)     0.00   338.50     0  00:00        0.00
  103-0098             JUNCTION  -nan(ind)     0.00   322.30     0  00:00        0.00
  103-0099             JUNCTION  -nan(ind)     0.00   329.60     0  00:00        0.00
  103-0100             JUNCTION  -nan(ind)     0.00   330.29     0  00:00        0.00
  103-0101             JUNCTION  -nan(ind)     0.00   333.18     0  00:00        0.00
  103-0102             JUNCTION  -nan(ind)     0.00   337.77     0  00:00        0.00
  103-0103             JUNCTION  -nan(ind)     0.00   331.84     0  00:00        0.00
  103-0104             JUNCTION  -nan(ind)     0.00   255.70     0  00:00        0.00
  103-0105             JUNCTION  -nan(ind)     0.00   258.52     0  00:00        0.00
  103-0106             JUNCTION  -nan(ind)     0.00   247.23     0  00:00        0.00
  103-0107             JUNCTION  -nan(ind)     0.00   249.63     0  00:00        0.00
  103-0108             JUNCTION  -nan(ind)     0.00   187.60     0  00:00        0.00
  103-0109             JUNCTION  -nan(ind)     0.00   147.67     0  00:00        0.00
  103-0110             JUNCTION  -nan(ind)     0.00   173.63     0  00:00        0.00
  103-0111             JUNCTION  -nan(ind)     0.00   187.32     0  00:00        0.00
  103-0112             JUNCTION  -nan(ind)     0.00   189.02     0  00:00        0.00
  103-0113             JUNCTION  -nan(ind)     0.00   192.35     0  00:00        0.00
  103-0114             JUNCTION  -nan(ind)     0.00   194.61     0  00:00        0.00
  103-0115             JUNCTION  -nan(ind)     0.00   195.44     0  00:00        0.00
  103-0116             JUNCTION  -nan(ind)     0.00   203.47     0  00:00        0.00
[...]
  66-0112                 1.00   -nan(ind)  -nan(ind)  -nan(ind)  -nan(ind)  -nan(ind)  -nan(ind)  -nan(ind)  -nan(ind)  -nan(ind)
  66-0113                 1.00   -nan(ind)  -nan(ind)  -nan(ind)  -nan(ind)  -nan(ind)  -nan(ind)  -nan(ind)  -nan(ind)  -nan(ind)
  66-0114                 1.00   -nan(ind)  -nan(ind)  -nan(ind)  -nan(ind)  -nan(ind)  -nan(ind)  -nan(ind)  -nan(ind)  -nan(ind)
  66-0115                 1.00   -nan(ind)  -nan(ind)  -nan(ind)  -nan(ind)  -nan(ind)  -nan(ind)  -nan(ind)  -nan(ind)  -nan(ind)
  66-0116                 1.00   -nan(ind)  -nan(ind)  -nan(ind)  -nan(ind)  -nan(ind)  -nan(ind)  -nan(ind)  -nan(ind)  -nan(ind)
  66-0117                 1.00   -nan(ind)  -nan(ind)  -nan(ind)  -nan(ind)  -nan(ind)  -nan(ind)  -nan(ind)  -nan(ind)  -nan(ind)
  66-0118                 1.00   -nan(ind)  -nan(ind)  -nan(ind)  -nan(ind)  -nan(ind)  -nan(ind)  -nan(ind)  -nan(ind)  -nan(ind)
  66-0119                 1.00   -nan(ind)  -nan(ind)  -nan(ind)  -nan(ind)  -nan(ind)  -nan(ind)  -nan(ind)  -nan(ind)  -nan(ind)
  66-0120                 1.00   -nan(ind)  -nan(ind)  -nan(ind)  -nan(ind)  -nan(ind)  -nan(ind)  -nan(ind)  -nan(ind)  -nan(ind)
  66-0124                 1.00   -nan(ind)  -nan(ind)  -nan(ind)  -nan(ind)  -nan(ind)  -nan(ind)  -nan(ind)  -nan(ind)  -nan(ind)
  66-0125                 1.00   -nan(ind)  -nan(ind)  -nan(ind)  -nan(ind)  -nan(ind)  -nan(ind)  -nan(ind)  -nan(ind)  -nan(ind)
  66-0126                 1.00   -nan(ind)  -nan(ind)  -nan(ind)  -nan(ind)  -nan(ind)  -nan(ind)  -nan(ind)  -nan(ind)  -nan(ind)
  66-0127                 1.00   -nan(ind)  -nan(ind)  -nan(ind)  -nan(ind)  -nan(ind)  -nan(ind)  -nan(ind)  -nan(ind)  -nan(ind)
  66-0128                 1.00   -nan(ind)  -nan(ind)  -nan(ind)  -nan(ind)  -nan(ind)  -nan(ind)  -nan(ind)  -nan(ind)  -nan(ind)
  66-0129                 1.00   -nan(ind)  -nan(ind)  -nan(ind)  -nan(ind)  -nan(ind)  -nan(ind)  -nan(ind)  -nan(ind)  -nan(ind)
  66-0130                 1.00   -nan(ind)  -nan(ind)  -nan(ind)  -nan(ind)  -nan(ind)  -nan(ind)  -nan(ind)  -nan(ind)  -nan(ind)
  66-0131                 1.00   -nan(ind)  -nan(ind)  -nan(ind)  -nan(ind)  -nan(ind)  -nan(ind)  -nan(ind)  -nan(ind)  -nan(ind)
  66-0132                 1.00   -nan(ind)  -nan(ind)  -nan(ind)  -nan(ind)  -nan(ind)  -nan(ind)  -nan(ind)  -nan(ind)  -nan(ind)
  66-0160                 1.00   -nan(ind)  -nan(ind)  -nan(ind)  -nan(ind)  -nan(ind)  -nan(ind)  -nan(ind)  -nan(ind)  -nan(ind)
  66-0161                 1.00   -nan(ind)  -nan(ind)  -nan(ind)  -nan(ind)  -nan(ind)  -nan(ind)  -nan(ind)  -nan(ind)  -nan(ind)
  66-0162                 1.00   -nan(ind)  -nan(ind)  -nan(ind)  -nan(ind)  -nan(ind)  -nan(ind)  -nan(ind)  -nan(ind)  -nan(ind)
  66-0163                 1.00   -nan(ind)  -nan(ind)  -nan(ind)  -nan(ind)  -nan(ind)  -nan(ind)  -nan(ind)  -nan(ind)  -nan(ind)
  66-0164                 1.00   -nan(ind)  -nan(ind)  -nan(ind)  -nan(ind)  -nan(ind)  -nan(ind)  -nan(ind)  -nan(ind)  -nan(ind)
  66-0165                 1.00   -nan(ind)  -nan(ind)  -nan(ind)  -nan(ind)  -nan(ind)  -nan(ind)  -nan(ind)  -nan(ind)  -nan(ind)
  66-0166                 1.00   -nan(ind)  -nan(ind)  -nan(ind)  -nan(ind)  -nan(ind)  -nan(ind)  -nan(ind)  -nan(ind)  -nan(ind)
  66-0167                 1.00   -nan(ind)  -nan(ind)  -nan(ind)  -nan(ind)  -nan(ind)  -nan(ind)  -nan(ind)  -nan(ind)  -nan(ind)
  66-0200                 1.00   -nan(ind)  -nan(ind)  -nan(ind)  -nan(ind)  -nan(ind)  -nan(ind)  -nan(ind)  -nan(ind)  -nan(ind)
  66-0205                 1.00   -nan(ind)  -nan(ind)  -nan(ind)  -nan(ind)  -nan(ind)  -nan(ind)  -nan(ind)  -nan(ind)  -nan(ind)
  66-0206                 1.00   -nan(ind)  -nan(ind)  -nan(ind)  -nan(ind)  -nan(ind)  -nan(ind)  -nan(ind)  -nan(ind)  -nan(ind)
  66-0207                 1.00   -nan(ind)  -nan(ind)  -nan(ind)  -nan(ind)  -nan(ind)  -nan(ind)  -nan(ind)  -nan(ind)  -nan(ind)
  66-0208                 1.00   -nan(ind)  -nan(ind)  -nan(ind)  -nan(ind)  -nan(ind)  -nan(ind)  -nan(ind)  -nan(ind)  -nan(ind)
  66-0210                 1.00   -nan(ind)  -nan(ind)  -nan(ind)  -nan(ind)  -nan(ind)  -nan(ind)  -nan(ind)  -nan(ind)  -nan(ind)
  66-0211                 1.00   -nan(ind)  -nan(ind)  -nan(ind)  -nan(ind)  -nan(ind)  -nan(ind)  -nan(ind)  -nan(ind)  -nan(ind)
  66-0212                 1.00   -nan(ind)  -nan(ind)  -nan(ind)  -nan(ind)  -nan(ind)  -nan(ind)  -nan(ind)  -nan(ind)  -nan(ind)
  66-0213                 1.00   -nan(ind)  -nan(ind)  -nan(ind)  -nan(ind)  -nan(ind)  -nan(ind)  -nan(ind)  -nan(ind)  -nan(ind)
  66-0214                 1.00   -nan(ind)  -nan(ind)  -nan(ind)  -nan(ind)  -nan(ind)  -nan(ind)  -nan(ind)  -nan(ind)  -nan(ind)
  66-0215                 1.00   -nan(ind)  -nan(ind)  -nan(ind)  -nan(ind)  -nan(ind)  -nan(ind)  -nan(ind)  -nan(ind)  -nan(ind)
  66-0216                 1.00   -nan(ind)  -nan(ind)  -nan(ind)  -nan(ind)  -nan(ind)  -nan(ind)  -nan(ind)  -nan(ind)  -nan(ind)
  66-0217                 2.69   -nan(ind)  -nan(ind)  -nan(ind)  -nan(ind)  -nan(ind)  -nan(ind)  -nan(ind)  -nan(ind)  -nan(ind)
  69-001                  1.00   -nan(ind)  -nan(ind)  -nan(ind)  -nan(ind)  -nan(ind)  -nan(ind)  -nan(ind)  -nan(ind)  -nan(ind)
  73-001                  1.00   -nan(ind)  -nan(ind)  -nan(ind)  -nan(ind)  -nan(ind)  -nan(ind)  -nan(ind)  -nan(ind)  -nan(ind)
  79-001                  1.00   -nan(ind)  -nan(ind)  -nan(ind)  -nan(ind)  -nan(ind)  -nan(ind)  -nan(ind)  -nan(ind)  -nan(ind)
  87-0096                 1.00   -nan(ind)  -nan(ind)  -nan(ind)  -nan(ind)  -nan(ind)  -nan(ind)  -nan(ind)  -nan(ind)  -nan(ind)
  87-0097                 1.00   -nan(ind)  -nan(ind)  -nan(ind)  -nan(ind)  -nan(ind)  -nan(ind)  -nan(ind)  -nan(ind)  -nan(ind)
  87-0098                 1.00   -nan(ind)  -nan(ind)  -nan(ind)  -nan(ind)  -nan(ind)  -nan(ind)  -nan(ind)  -nan(ind)  -nan(ind)
  87-0099                 1.00   -nan(ind)  -nan(ind)  -nan(ind)  -nan(ind)  -nan(ind)  -nan(ind)  -nan(ind)  -nan(ind)  -nan(ind)
  87-0100                 1.00   -nan(ind)  -nan(ind)  -nan(ind)  -nan(ind)  -nan(ind)  -nan(ind)  -nan(ind)  -nan(ind)  -nan(ind)
  87-0101                 1.00   -nan(ind)  -nan(ind)  -nan(ind)  -nan(ind)  -nan(ind)  -nan(ind)  -nan(ind)  -nan(ind)  -nan(ind)
  87-0102                 1.00   -nan(ind)  -nan(ind)  -nan(ind)  -nan(ind)  -nan(ind)  -nan(ind)  -nan(ind)  -nan(ind)  -nan(ind)
  87-0103                 1.00   -nan(ind)  -nan(ind)  -nan(ind)  -nan(ind)  -nan(ind)  -nan(ind)  -nan(ind)  -nan(ind)  -nan(ind)
  CO40-01                 1.00   -nan(ind)  -nan(ind)  -nan(ind)  -nan(ind)  -nan(ind)  -nan(ind)  -nan(ind)  -nan(ind)  -nan(ind)
  CO40-02                 1.00   -nan(ind)  -nan(ind)  -nan(ind)  -nan(ind)  -nan(ind)  -nan(ind)  -nan(ind)  -nan(ind)  -nan(ind)
  CO60-01                 1.00   -nan(ind)  -nan(ind)  -nan(ind)  -nan(ind)  -nan(ind)  -nan(ind)  -nan(ind)  -nan(ind)  -nan(ind)
  CO60-02                 1.00   -nan(ind)  -nan(ind)  -nan(ind)  -nan(ind)  -nan(ind)  -nan(ind)  -nan(ind)  -nan(ind)  -nan(ind)
  CO60-03                 1.00   -nan(ind)  -nan(ind)  -nan(ind)  -nan(ind)  -nan(ind)  -nan(ind)  -nan(ind)  -nan(ind)  -nan(ind)
  CO60-04                 1.00   -nan(ind)  -nan(ind)  -nan(ind)  -nan(ind)  -nan(ind)  -nan(ind)  -nan(ind)  -nan(ind)  -nan(ind)
  END002                  1.00   -nan(ind)  -nan(ind)  -nan(ind)  -nan(ind)  -nan(ind)  -nan(ind)  -nan(ind)  -nan(ind)  -nan(ind)
  END004                  1.00   -nan(ind)  -nan(ind)  -nan(ind)  -nan(ind)  -nan(ind)  -nan(ind)  -nan(ind)  -nan(ind)  -nan(ind)
  F-38                    1.00   -nan(ind)  -nan(ind)  -nan(ind)  -nan(ind)  -nan(ind)  -nan(ind)  -nan(ind)  -nan(ind)  -nan(ind)
  FMN-10                  1.00   -nan(ind)  -nan(ind)  -nan(ind)  -nan(ind)  -nan(ind)  -nan(ind)  -nan(ind)  -nan(ind)  -nan(ind)
  P10-0197                1.00   -nan(ind)  -nan(ind)  -nan(ind)  -nan(ind)  -nan(ind)  -nan(ind)  -nan(ind)  -nan(ind)  -nan(ind)
  P10-0198                1.00   -nan(ind)  -nan(ind)  -nan(ind)  -nan(ind)  -nan(ind)  -nan(ind)  -nan(ind)  -nan(ind)  -nan(ind)
  P10-0199                1.00   -nan(ind)  -nan(ind)  -nan(ind)  -nan(ind)  -nan(ind)  -nan(ind)  -nan(ind)  -nan(ind)  -nan(ind)
  P10-0225                6.31   -nan(ind)  -nan(ind)  -nan(ind)  -nan(ind)  -nan(ind)  -nan(ind)  -nan(ind)  -nan(ind)  -nan(ind)
  P103-0109               2.32   -nan(ind)  -nan(ind)  -nan(ind)  -nan(ind)  -nan(ind)  -nan(ind)  -nan(ind)  -nan(ind)  -nan(ind)
  P103-0133               1.00   -nan(ind)  -nan(ind)  -nan(ind)  -nan(ind)  -nan(ind)  -nan(ind)  -nan(ind)  -nan(ind)  -nan(ind)
  P103-0225A              1.00   -nan(ind)  -nan(ind)  -nan(ind)  -nan(ind)  -nan(ind)  -nan(ind)  -nan(ind)  -nan(ind)  -nan(ind)
  P60-0290                1.00   -nan(ind)  -nan(ind)  -nan(ind)  -nan(ind)  -nan(ind)  -nan(ind)  -nan(ind)  -nan(ind)  -nan(ind)
  P60-0291                1.00   -nan(ind)  -nan(ind)  -nan(ind)  -nan(ind)  -nan(ind)  -nan(ind)  -nan(ind)  -nan(ind)  -nan(ind)
  P60-0292                1.00   -nan(ind)  -nan(ind)  -nan(ind)  -nan(ind)  -nan(ind)  -nan(ind)  -nan(ind)  -nan(ind)  -nan(ind)
  P60-0293                1.00   -nan(ind)  -nan(ind)  -nan(ind)  -nan(ind)  -nan(ind)  -nan(ind)  -nan(ind)  -nan(ind)  -nan(ind)
  P60-6001                1.00   -nan(ind)  -nan(ind)  -nan(ind)  -nan(ind)  -nan(ind)  -nan(ind)  -nan(ind)  -nan(ind)  -nan(ind)
  P60-6002                1.00   -nan(ind)  -nan(ind)  -nan(ind)  -nan(ind)  -nan(ind)  -nan(ind)  -nan(ind)  -nan(ind)  -nan(ind)
  P60-6003                1.00   -nan(ind)  -nan(ind)  -nan(ind)  -nan(ind)  -nan(ind)  -nan(ind)  -nan(ind)  -nan(ind)  -nan(ind)
  P60-6004                1.00   -nan(ind)  -nan(ind)  -nan(ind)  -nan(ind)  -nan(ind)  -nan(ind)  -nan(ind)  -nan(ind)  -nan(ind)
  P69-101                 1.00   -nan(ind)  -nan(ind)  -nan(ind)  -nan(ind)  -nan(ind)  -nan(ind)  -nan(ind)  -nan(ind)  -nan(ind)
  P69-102                 1.00   -nan(ind)  -nan(ind)  -nan(ind)  -nan(ind)  -nan(ind)  -nan(ind)  -nan(ind)  -nan(ind)  -nan(ind)
  P69-103                 1.00   -nan(ind)  -nan(ind)  -nan(ind)  -nan(ind)  -nan(ind)  -nan(ind)  -nan(ind)  -nan(ind)  -nan(ind)
  P79-102                 1.00   -nan(ind)  -nan(ind)  -nan(ind)  -nan(ind)  -nan(ind)  -nan(ind)  -nan(ind)  -nan(ind)  -nan(ind)
  P79-103                 1.00   -nan(ind)  -nan(ind)  -nan(ind)  -nan(ind)  -nan(ind)  -nan(ind)  -nan(ind)  -nan(ind)  -nan(ind)
  P79-201                 1.00   -nan(ind)  -nan(ind)  -nan(ind)  -nan(ind)  -nan(ind)  -nan(ind)  -nan(ind)  -nan(ind)  -nan(ind)
  P79-202                 1.00   -nan(ind)  -nan(ind)  -nan(ind)  -nan(ind)  -nan(ind)  -nan(ind)  -nan(ind)  -nan(ind)  -nan(ind)
  P79-203                 1.00   -nan(ind)  -nan(ind)  -nan(ind)  -nan(ind)  -nan(ind)  -nan(ind)  -nan(ind)  -nan(ind)  -nan(ind)
  PLUG-002                1.00   -nan(ind)  -nan(ind)  -nan(ind)  -nan(ind)  -nan(ind)  -nan(ind)  -nan(ind)  -nan(ind)  -nan(ind)
  PLUG-006                1.00   -nan(ind)  -nan(ind)  -nan(ind)  -nan(ind)  -nan(ind)  -nan(ind)  -nan(ind)  -nan(ind)  -nan(ind)
  PS-37                   1.00   -nan(ind)  -nan(ind)  -nan(ind)  -nan(ind)  -nan(ind)  -nan(ind)  -nan(ind)  -nan(ind)  -nan(ind)
  TAP60-01                1.00   -nan(ind)  -nan(ind)  -nan(ind)  -nan(ind)  -nan(ind)  -nan(ind)  -nan(ind)  -nan(ind)  -nan(ind)
  TEMP                    1.00   -nan(ind)  -nan(ind)  -nan(ind)  -nan(ind)  -nan(ind)  -nan(ind)  -nan(ind)  -nan(ind)  -nan(ind)
  TEMP-2                  1.00   -nan(ind)  -nan(ind)  -nan(ind)  -nan(ind)  -nan(ind)  -nan(ind)  -nan(ind)  -nan(ind)  -nan(ind)
  
  
  *************************
  Conduit Surcharge Summary
  *************************
  
  No conduits were surcharged.
  
  
  ***************
  Pumping Summary
  ***************
  
  ---------------------------------------------------------------------------------------------------------
                                                  Min       Avg       Max     Total     Power    % Time Off
                        Percent   Number of      Flow      Flow      Flow    Volume     Usage    Pump Curve
  Pump                 Utilized   Start-Ups       GPM       GPM       GPM  10^6 gal     Kw-hr    Low   High
  ---------------------------------------------------------------------------------------------------------
  103                  -nan(ind)           0      0.00      0.00      0.00     0.000      0.00    0.0    0.0
  105                  -nan(ind)           0      0.00      0.00      0.00     0.000      0.00    0.0    0.0
  107                  -nan(ind)           0      0.00      0.00      0.00     0.000      0.00    0.0    0.0
  5012                 -nan(ind)           0      0.00      0.00      0.00     0.000      0.00    0.0    0.0
  5020                 -nan(ind)           0      0.00      0.00      0.00     0.000      0.00    0.0    0.0
  5024                 -nan(ind)           0      0.00      0.00      0.00     0.000      0.00    0.0    0.0
  C-41                 -nan(ind)           0      0.00      0.00      0.00     0.000      0.00    0.0    0.0
  P-01                 -nan(ind)           0      0.00      0.00      0.00     0.000      0.00    0.0    0.0
  P-02                 -nan(ind)           0      0.00      0.00      0.00     0.000      0.00    0.0    0.0
  P-03                 -nan(ind)           0      0.00      0.00      0.00     0.000      0.00    0.0    0.0
  P-04                 -nan(ind)           0      0.00      0.00      0.00     0.000      0.00    0.0    0.0
  P-05                 -nan(ind)           0      0.00      0.00      0.00     0.000      0.00    0.0    0.0
  P-06                 -nan(ind)           0      0.00      0.00      0.00     0.000      0.00    0.0    0.0
  P-10                 -nan(ind)           0      0.00      0.00      0.00     0.000      0.00    0.0    0.0
  P-101                -nan(ind)           0      0.00      0.00      0.00     0.000      0.00    0.0    0.0
  P-103                -nan(ind)           0      0.00      0.00      0.00     0.000      0.00    0.0    0.0
  P-106                -nan(ind)           0      0.00      0.00      0.00     0.000      0.00    0.0    0.0
  P-106B               -nan(ind)           0      0.00      0.00      0.00     0.000      0.00    0.0    0.0
  P-11                 -nan(ind)           0      0.00      0.00      0.00     0.000      0.00    0.0    0.0
  P-12                 -nan(ind)           0      0.00      0.00      0.00     0.000      0.00    0.0    0.0
  P-14                 -nan(ind)           0      0.00      0.00      0.00     0.000      0.00    0.0    0.0
  P-15                 -nan(ind)           0      0.00      0.00      0.00     0.000      0.00    0.0    0.0
  P-16                 -nan(ind)           0      0.00      0.00      0.00     0.000      0.00    0.0    0.0
  P-17                 -nan(ind)           0      0.00      0.00      0.00     0.000      0.00    0.0    0.0
  P-18                 -nan(ind)           0      0.00      0.00      0.00     0.000      0.00    0.0    0.0
  P-19                 -nan(ind)           0      0.00      0.00      0.00     0.000      0.00    0.0    0.0
  P-20                 -nan(ind)           0      0.00      0.00      0.00     0.000      0.00    0.0    0.0
  P-21                 -nan(ind)           0      0.00      0.00      0.00     0.000      0.00    0.0    0.0
  P-22                 -nan(ind)           0      0.00      0.00      0.00     0.000      0.00    0.0    0.0
  P-23                 -nan(ind)           0      0.00      0.00      0.00     0.000      0.00    0.0    0.0
  P-24                 -nan(ind)           0      0.00      0.00      0.00     0.000      0.00    0.0    0.0
  P-25                 -nan(ind)           0      0.00      0.00      0.00     0.000      0.00    0.0    0.0
  P-26                 -nan(ind)           0      0.00      0.00      0.00     0.000      0.00    0.0    0.0
  P-27                 -nan(ind)           0      0.00      0.00      0.00     0.000      0.00    0.0    0.0
  P-28                 -nan(ind)           0      0.00      0.00      0.00     0.000      0.00    0.0    0.0
  P-29                 -nan(ind)           0      0.00      0.00      0.00     0.000      0.00    0.0    0.0
  P-30                 -nan(ind)           0      0.00      0.00      0.00     0.000      0.00    0.0    0.0
  P-31                 -nan(ind)           0      0.00      0.00      0.00     0.000      0.00    0.0    0.0
  P-32                 -nan(ind)           0      0.00      0.00      0.00     0.000      0.00    0.0    0.0
  P-34                 -nan(ind)           0      0.00      0.00      0.00     0.000      0.00    0.0    0.0
  P-35                 -nan(ind)           0      0.00      0.00      0.00     0.000      0.00    0.0    0.0
  P-36                 -nan(ind)           0      0.00      0.00      0.00     0.000      0.00    0.0    0.0
  P-37                 -nan(ind)           0      0.00      0.00      0.00     0.000      0.00    0.0    0.0
  P-38                 -nan(ind)           0      0.00      0.00      0.00     0.000      0.00    0.0    0.0
  P-40                 -nan(ind)           0      0.00      0.00      0.00     0.000      0.00    0.0    0.0
  P-42                 -nan(ind)           0      0.00      0.00      0.00     0.000      0.00    0.0    0.0
  P-43                 -nan(ind)           0      0.00      0.00      0.00     0.000      0.00    0.0    0.0
  P-45                 -nan(ind)           0      0.00      0.00      0.00     0.000      0.00    0.0    0.0
  P-46                 -nan(ind)           0      0.00      0.00      0.00     0.000      0.00    0.0    0.0
  P-46A                -nan(ind)           0      0.00      0.00      0.00     0.000      0.00    0.0    0.0
  P-47                 -nan(ind)           0      0.00      0.00      0.00     0.000      0.00    0.0    0.0
  P-48                 -nan(ind)           0      0.00      0.00      0.00     0.000      0.00    0.0    0.0
  P-49                 -nan(ind)           0      0.00      0.00      0.00     0.000      0.00    0.0    0.0
  P-50                 -nan(ind)           0      0.00      0.00      0.00     0.000      0.00    0.0    0.0
  P-51                 -nan(ind)           0      0.00      0.00      0.00     0.000      0.00    0.0    0.0
  P-52                 -nan(ind)           0      0.00      0.00      0.00     0.000      0.00    0.0    0.0
  P-54                 -nan(ind)           0      0.00      0.00      0.00     0.000      0.00    0.0    0.0
  P-55                 -nan(ind)           0      0.00      0.00      0.00     0.000      0.00    0.0    0.0
  P-56                 -nan(ind)           0      0.00      0.00      0.00     0.000      0.00    0.0    0.0
  P-58                 -nan(ind)           0      0.00      0.00      0.00     0.000      0.00    0.0    0.0
  P-61                 -nan(ind)           0      0.00      0.00      0.00     0.000      0.00    0.0    0.0
  P-62                 -nan(ind)           0      0.00      0.00      0.00     0.000      0.00    0.0    0.0
  P-63                 -nan(ind)           0      0.00      0.00      0.00     0.000      0.00    0.0    0.0
  P-64                 -nan(ind)           0      0.00      0.00      0.00     0.000      0.00    0.0    0.0
  P-66                 -nan(ind)           0      0.00      0.00      0.00     0.000      0.00    0.0    0.0
  PPP-100              -nan(ind)           0      0.00      0.00      0.00     0.000      0.00    0.0    0.0
  PS69-1               -nan(ind)           0      0.00      0.00      0.00     0.000      0.00    0.0    0.0
  PS79-1               -nan(ind)           0      0.00      0.00      0.00     0.000      0.00    0.0    0.0
  

  Analysis begun on:  Sat Nov 30 08:11:29 2019
  Analysis ended on:  Sat Nov 30 08:11:29 2019
  Total elapsed time: < 1 sec