
  EPA STORM WATER MANAGEMENT MODEL - VERSION 5.1 (Build 5.1.013)
  --------------------------------------------------------------

  WARNING 04: minimum elevation drop used for Conduit CDT-119
  WARNING 04: minimum elevation drop used for Conduit DBWRC_IN
  WARNING 04: minimum elevation drop used for Conduit OSR13OSR12
  WARNING 04: minimum elevation drop used for Conduit OSR5OSR4
  WARNING 04: minimum elevation drop used for Conduit RPR5RPR4
  WARNING 04: minimum elevation drop used for Conduit ST27RBS21
  WARNING 04: minimum elevation drop used for Conduit ZPSL20EZPSL20F
  WARNING 02: maximum depth increased for Node F29A
  
  *********************************************************
  NOTE: The summary statistics displayed in this report are
  based on results found at every computational time step,  
  not just on results from each reporting time step.
  *********************************************************
  
  ****************
  Analysis Options
  ****************
  Flow Units ............... GPM
  Process Models:
    Rainfall/Runoff ........ NO
    RDII ................... NO
    Snowmelt ............... NO
    Groundwater ............ NO
    Flow Routing ........... YES
    Ponding Allowed ........ YES
    Water Quality .......... NO
  Flow Routing Method ...... DYNWAVE
  Surcharge Method ......... EXTRAN
  Starting Date ............ 06/02/2010 00:00:00
  Ending Date .............. 06/05/2010 23:00:00
  Antecedent Dry Days ...... 5.0
  Report Time Step ......... 00:15:00
  Routing Time Step ........ 20.00 sec
  Variable Time Step ....... YES
  Maximum Trials ........... 8
  Number of Threads ........ 1
  Head Tolerance ........... 0.005000 ft
  
  
  **************************        Volume        Volume
  Flow Routing Continuity        acre-feet      10^6 gal
  **************************     ---------     ---------
  Dry Weather Inflow .......       693.636       226.032
  Wet Weather Inflow .......         0.000         0.000
  Groundwater Inflow .......         0.000         0.000
  RDII Inflow ..............         0.000         0.000
  External Inflow ..........         0.000         0.000
  External Outflow .........       668.464       217.829
  Flooding Loss ............         0.066         0.022
  Evaporation Loss .........         0.000         0.000
  Exfiltration Loss ........         0.000         0.000
  Initial Stored Volume ....         0.769         0.250
  Final Stored Volume ......        24.342         7.932
  Continuity Error (%) .....         0.221
  
  
  *************************
  Highest Continuity Errors
  *************************
  Node LS#9WW (-454.27%)
  Node LS#18WW (-438.47%)
  Node LS#35WW (-172.41%)
  Node LS#30WW (-96.42%)
  Node LVB4 (39.67%)
  
  
  ***************************
  Time-Step Critical Elements
  ***************************
  Link RHS12RHS11 (97.83%)
  Link LS#3W1LS#3 (1.27%)
  
  
  ********************************
  Highest Flow Instability Indexes
  ********************************
  Link LS#3W2LS#3 (16)
  Link LS#3W1LS#3 (16)
  Link PLT10PLT93_ (9)
  Link PLT93_PLT69 (7)
  Link AY1LS#16 (2)
  
  
  *************************
  Routing Time Step Summary
  *************************
  Minimum Time Step           :     1.68 sec
  Average Time Step           :     4.55 sec
  Maximum Time Step           :     8.51 sec
  Percent in Steady State     :    25.26
  Average Iterations per Step :     1.84
  Percent Not Converging      :     1.66
  
  
  ******************
  Node Depth Summary
  ******************
  
  ---------------------------------------------------------------------------------
                                 Average  Maximum  Maximum  Time of Max    Reported
                                   Depth    Depth      HGL   Occurrence   Max Depth
  Node                 Type         Feet     Feet     Feet  days hr:min        Feet
  ---------------------------------------------------------------------------------
  000                  JUNCTION     0.00     0.00  1725.16     0  00:00        0.00
  001                  JUNCTION     0.00     0.00  1725.51     0  00:00        0.00
  002                  JUNCTION     0.00     0.00  1725.87     0  00:00        0.00
  003                  JUNCTION     0.08     0.12  1726.39     1  13:02        0.12
  004                  JUNCTION     0.23     0.35  1727.13     1  13:01        0.35
  005                  JUNCTION     0.23     0.35  1727.64     1  13:00        0.35
  007                  JUNCTION     0.13     0.20  1728.52     1  13:00        0.20
  008                  JUNCTION     0.11     0.16  1729.06     1  13:52        0.16
  008A                 JUNCTION     0.09     0.14  1729.30     1  13:49        0.14
  008B                 JUNCTION     0.09     0.13  1729.52     1  13:46        0.13
  009                  JUNCTION     0.11     0.17  1729.65     1  13:43        0.17
  010                  JUNCTION     0.11     0.16  1730.09     1  13:40        0.16
  011                  JUNCTION     0.08     0.13  1731.48     1  13:31        0.13
  012                  JUNCTION     0.08     0.12  1732.62     1  13:28        0.12
  013                  JUNCTION     0.08     0.12  1733.77     1  13:22        0.12
  014                  JUNCTION     0.07     0.11  1735.09     1  13:19        0.11
  015                  JUNCTION     0.08     0.12  1736.43     1  13:14        0.12
  016                  JUNCTION     0.08     0.12  1736.69     1  13:13        0.12
  017                  JUNCTION     0.08     0.13  1738.13     1  13:11        0.13
  018                  JUNCTION     0.07     0.11  1739.94     1  13:07        0.11
  019                  JUNCTION     0.07     0.11  1741.77     1  13:00        0.11
  020                  JUNCTION     0.03     0.05  1742.63     2  13:52        0.05
  021                  JUNCTION     0.06     0.09  1743.58     2  13:48        0.09
  022                  JUNCTION     0.06     0.09  1744.50     2  13:41        0.09
  100                  JUNCTION     0.13     0.20  1750.26     2  13:04        0.20
  100A                 JUNCTION     0.03     0.05  1750.75     1  13:08        0.05
  101                  JUNCTION     0.12     0.19  1751.10     1  11:01        0.19
  101A                 JUNCTION     0.12     0.18  1751.38     1  13:07        0.18
  102                  JUNCTION     0.12     0.19  1751.84     1  11:00        0.19
  102A                 JUNCTION     0.08     0.12  1751.99     1  13:04        0.12
  103                  JUNCTION     0.12     0.19  1752.57     1  11:00        0.19
  103A                 JUNCTION     0.08     0.12  1752.68     1  13:02        0.12
  104                  JUNCTION     0.12     0.19  1753.31     1  11:00        0.19
  104A                 JUNCTION     0.10     0.15  1753.13     2  13:00        0.15
  105                  JUNCTION     0.10     0.16  1754.17     1  13:00        0.16
  106                  JUNCTION     0.08     0.13  1754.91     2  13:00        0.13
  107                  JUNCTION     0.06     0.09  1755.62     2  13:23        0.09
  108                  JUNCTION     0.06     0.09  1756.36     2  13:17        0.09
  109                  JUNCTION     0.11     0.16  1758.59     2  13:14        0.16
  110                  JUNCTION     0.09     0.14  1758.67     2  13:08        0.14
  111                  JUNCTION     0.09     0.14  1758.76     2  13:02        0.14
  112                  JUNCTION     0.08     0.13  1759.50     2  13:00        0.13
  113                  JUNCTION     0.04     0.06  1760.17     2  13:41        0.06
  114                  JUNCTION     0.04     0.06  1760.92     2  13:33        0.06
  115                  JUNCTION     0.04     0.06  1761.67     2  13:21        0.06
  116                  JUNCTION     0.04     0.06  1762.42     2  13:15        0.06
  117                  JUNCTION     0.04     0.06  1766.21     2  13:08        0.06
  118                  JUNCTION     0.05     0.07  1767.93     2  13:05        0.07
  119                  JUNCTION     0.05     0.08  1768.87     2  13:01        0.08
  120                  JUNCTION     0.05     0.08  1769.79     2  13:00        0.08
  121                  JUNCTION     0.05     0.08  1770.72     2  13:01        0.08
  122                  JUNCTION     0.05     0.08  1771.65     2  13:00        0.08
  123                  JUNCTION     0.05     0.08  1772.59     2  13:00        0.08
  124                  JUNCTION     0.05     0.07  1773.51     1  13:07        0.07
  125                  JUNCTION     0.02     0.04  1777.24     2  10:51        0.04
  126                  JUNCTION     0.04     0.06  1778.21     2  10:38        0.06
  127                  JUNCTION     0.03     0.05  1779.16     2  10:23        0.05
  128                  JUNCTION     0.00     0.00  1780.06     0  00:00        0.00
  134                  JUNCTION     0.09     0.14  1767.56     1  11:33        0.14
  135                  JUNCTION     0.11     0.17  1768.69     2  11:27        0.17
  136                  JUNCTION     0.10     0.16  1769.78     2  11:25        0.16
  137                  JUNCTION     0.10     0.16  1770.87     2  11:20        0.16
  138                  JUNCTION     0.10     0.15  1771.96     2  11:17        0.15
  138A                 JUNCTION     0.10     0.15  1772.66     2  11:13        0.15
  139                  JUNCTION     0.10     0.15  1773.06     2  11:10        0.15
  140                  JUNCTION     0.10     0.15  1774.16     2  11:08        0.15
  141                  JUNCTION     0.10     0.15  1775.30     2  10:59        0.15
  142                  JUNCTION     0.10     0.15  1776.45     2  10:59        0.15
  143                  JUNCTION     0.10     0.15  1777.60     2  10:49        0.15
  144                  JUNCTION     0.10     0.15  1778.75     2  10:46        0.15
  145                  JUNCTION     0.10     0.15  1779.89     2  10:42        0.15
  146                  JUNCTION     0.10     0.15  1781.04     2  10:37        0.15
  147                  JUNCTION     0.10     0.15  1782.19     2  10:35        0.15
  147A                 JUNCTION     0.08     0.13  1782.73     2  10:32        0.13
  148                  JUNCTION     0.08     0.13  1783.19     2  10:28        0.13
  149                  JUNCTION     0.07     0.11  1785.04     2  10:27        0.11
  150                  JUNCTION     0.07     0.11  1786.91     2  10:22        0.11
  150A                 JUNCTION     0.09     0.14  1787.13     2  10:20        0.14
  151                  JUNCTION     0.08     0.13  1787.95     2  10:16        0.13
  151A                 JUNCTION     0.08     0.13  1788.04     2  10:16        0.13
  152                  JUNCTION     0.08     0.13  1788.97     2  10:10        0.13
  152A                 JUNCTION     0.08     0.13  1789.54     2  10:06        0.13
  153                  JUNCTION     0.08     0.13  1789.99     2  10:02        0.13
  166                  JUNCTION     0.25     0.37  1770.17     1  15:08        0.37
  167                  JUNCTION     0.23     0.34  1771.17     1  15:06        0.34
  168                  JUNCTION     0.23     0.34  1772.21     1  15:05        0.34
  169                  JUNCTION     0.23     0.35  1773.25     1  15:03        0.35
  170                  JUNCTION     0.27     0.41  1773.93     2  13:04        0.41
  171                  JUNCTION     0.19     0.29  1775.26     2  13:02        0.29
  172                  JUNCTION     0.24     0.36  1776.37     2  13:01        0.36
  173                  JUNCTION     0.23     0.34  1777.39     2  13:00        0.34
  174                  JUNCTION     0.24     0.36  1778.32     1  15:00        0.36
  175                  JUNCTION     0.20     0.31  1779.08     1  15:00        0.31
  176                  JUNCTION     0.29     0.44  1779.63     1  15:00        0.44
  177                  JUNCTION     0.16     0.25  1780.65     1  15:18        0.25
  178                  JUNCTION     0.16     0.23  1783.78     1  15:17        0.23
  179                  JUNCTION     0.22     0.32  1784.95     1  15:16        0.32
  180                  JUNCTION     0.17     0.25  1786.91     1  15:15        0.25
  181                  JUNCTION     0.20     0.30  1788.37     2  13:24        0.30
  182                  JUNCTION     0.12     0.18  1789.32     2  13:19        0.18
  182A                 JUNCTION     0.19     0.29  1789.72     2  13:19        0.29
  183                  JUNCTION     0.18     0.27  1790.48     2  13:18        0.27
  183A                 JUNCTION     0.18     0.27  1790.60     2  13:16        0.27
  184                  JUNCTION     0.17     0.26  1791.55     2  13:15        0.26
  185                  JUNCTION     0.14     0.21  1792.57     2  13:10        0.21
  185A                 JUNCTION     0.14     0.21  1792.68     2  13:08        0.21
  186                  JUNCTION     0.13     0.21  1793.65     2  13:07        0.21
  187                  JUNCTION     0.13     0.21  1794.58     2  13:06        0.21
  187A                 JUNCTION     0.14     0.21  1795.06     2  13:04        0.21
  188                  JUNCTION     0.13     0.21  1795.52     2  13:03        0.21
  189                  JUNCTION     0.13     0.20  1796.45     2  13:02        0.20
  190                  JUNCTION     0.13     0.21  1797.39     2  13:01        0.21
  191                  JUNCTION     0.12     0.19  1798.31     2  13:00        0.19
  192                  JUNCTION     0.12     0.19  1799.25     2  13:00        0.19
  201                  JUNCTION     0.10     0.15  1801.02     1  11:14        0.15
  202                  JUNCTION     0.09     0.15  1802.58     1  11:07        0.15
  203                  JUNCTION     0.09     0.14  1804.13     1  11:01        0.14
  204                  JUNCTION     0.09     0.14  1805.69     1  11:00        0.14
  205                  JUNCTION     0.08     0.13  1807.24     1  11:02        0.13
  206                  JUNCTION     0.08     0.13  1808.80     2  10:56        0.13
  207                  JUNCTION     0.08     0.13  1810.36     2  10:57        0.13
  208                  JUNCTION     0.08     0.13  1811.92     2  10:51        0.13
  209                  JUNCTION     0.06     0.09  1816.06     2  10:49        0.09
  210                  JUNCTION     0.10     0.15  1817.04     2  10:46        0.15
  211                  JUNCTION     0.09     0.13  1817.95     2  10:40        0.13
  212                  JUNCTION     0.09     0.14  1818.88     2  10:30        0.14
  213                  JUNCTION     0.08     0.12  1820.05     2  10:31        0.12
  214                  JUNCTION     0.08     0.13  1821.24     2  10:20        0.12
  215                  JUNCTION     0.08     0.12  1822.42     1  11:00        0.12
  216                  JUNCTION     0.08     0.13  1823.61     2  10:10        0.12
  217                  JUNCTION     0.09     0.13  1825.04     1  11:00        0.13
  218                  JUNCTION     0.11     0.18  1826.30     2  11:00        0.18
  219                  JUNCTION     0.08     0.12  1827.50     2  13:00        0.12
  220                  JUNCTION     0.08     0.12  1828.64     2  12:56        0.12
  221                  JUNCTION     0.05     0.07  1829.93     1  13:08        0.07
  222                  JUNCTION     0.03     0.05  1831.26     2  10:36        0.05
  223                  JUNCTION     0.04     0.05  1832.60     2  10:23        0.05
  224                  JUNCTION     0.04     0.05  1833.95     2  10:10        0.05
  225                  JUNCTION     0.09     0.15  1835.38     1  11:01        0.15
  226                  JUNCTION     0.17     0.26  1836.99     1  11:00        0.26
  227                  JUNCTION     0.19     0.30  1838.34     1  11:00        0.30
  228                  JUNCTION     0.18     0.29  1839.62     1  11:00        0.29
  229                  JUNCTION     0.16     0.25  1840.25     1  11:00        0.25
  23                   JUNCTION     0.19     0.30  1745.62     2  13:39        0.30
  230                  JUNCTION     0.18     0.28  1840.67     1  11:00        0.28
  231                  JUNCTION     0.18     0.27  1840.83     1  11:00        0.27
  231A                 JUNCTION     0.11     0.17  1842.02     1  11:00        0.17
  232                  JUNCTION     0.08     0.12  1847.55     1  11:00        0.12
  233                  JUNCTION     0.05     0.08  1848.45     1  11:04        0.08
  234                  JUNCTION     0.05     0.08  1849.39     2  10:35        0.08
  235                  JUNCTION     0.06     0.09  1850.46     1  11:01        0.09
  236                  JUNCTION     0.04     0.06  1854.49     2  10:46        0.06
  237                  JUNCTION     0.06     0.09  1855.60     2  10:34        0.09
  238                  JUNCTION     0.05     0.08  1856.68     1  10:54        0.08
  239                  JUNCTION     0.01     0.01  1846.61     1  13:39        0.01
  239A                 JUNCTION     0.36     0.53  1846.84     2  13:07        0.53
  24                   JUNCTION     0.18     0.27  1750.30     2  13:41        0.27
  240                  JUNCTION     0.02     0.02  1846.97     1  13:13        0.02
  240A                 JUNCTION     0.25     0.39  1847.12     2  13:04        0.39
  241                  JUNCTION     0.01     0.01  1847.33     1  11:00        0.01
  241A                 JUNCTION     0.23     0.35  1849.30     2  13:00        0.35
  242                  JUNCTION     0.27     0.41  1849.91     2  13:02        0.41
  248                  JUNCTION     0.00     0.01  1763.46     1  16:14        0.01
  249                  JUNCTION     0.00     0.00  1764.36     1  16:00        0.00
  25                   JUNCTION     0.25     0.38  1751.81     2  13:40        0.38
  250                  JUNCTION     0.00     0.00  1765.26     0  00:00        0.00
  251                  JUNCTION     0.00     0.00  1766.17     0  00:00        0.00
  252                  JUNCTION     0.00     0.00  1767.38     0  00:00        0.00
  253                  JUNCTION     0.00     0.00  1768.46     0  00:00        0.00
  254                  JUNCTION     0.00     0.00  1769.02     0  00:00        0.00
  255                  JUNCTION     0.00     0.00  1770.63     0  00:00        0.00
  256                  JUNCTION     0.00     0.00  1771.72     0  00:00        0.00
  257                  JUNCTION     0.00     0.00  1772.77     0  00:00        0.00
  258                  JUNCTION     0.00     0.00  1773.74     0  00:00        0.00
  26                   JUNCTION     0.24     0.36  1753.18     2  13:37        0.36
  27                   JUNCTION     0.24     0.36  1754.58     2  13:35        0.36
  28                   JUNCTION     0.24     0.36  1755.97     2  13:31        0.36
  29                   JUNCTION     0.24     0.37  1757.34     2  13:29        0.37
  30                   JUNCTION     0.24     0.36  1758.77     2  13:27        0.36
  306                  JUNCTION     0.07     0.11  1792.32     2  13:00        0.11
  307                  JUNCTION     0.10     0.15  1714.26     1  11:09        0.15
  308                  JUNCTION     0.12     0.19  1715.01     1  11:05        0.19
  308A                 JUNCTION     0.11     0.17  1715.27     1  11:03        0.17
  309                  JUNCTION     0.11     0.17  1715.69     1  11:02        0.17
  309A                 JUNCTION     0.11     0.18  1715.85     1  11:01        0.18
  31                   JUNCTION     0.24     0.36  1760.19     2  13:25        0.36
  310                  JUNCTION     0.11     0.17  1716.41     1  11:00        0.17
  311                  JUNCTION     0.10     0.16  1717.11     1  11:05        0.16
  312                  JUNCTION     0.08     0.13  1718.91     1  11:03        0.13
  313                  JUNCTION     0.08     0.13  1720.74     1  11:03        0.13
  314                  JUNCTION     0.07     0.11  1724.80     1  11:02        0.11
  315                  JUNCTION     0.07     0.10  1731.09     1  11:01        0.10
  316                  JUNCTION     0.11     0.16  1739.66     1  11:00        0.16
  317                  JUNCTION     0.09     0.14  1751.32     1  11:00        0.14
  318                  JUNCTION     0.07     0.11  1759.10     1  11:04        0.11
  319                  JUNCTION     0.08     0.13  1763.43     1  11:03        0.13
  32                   JUNCTION     0.24     0.36  1761.61     2  13:22        0.36
  320                  JUNCTION     0.08     0.13  1767.33     1  11:02        0.13
  321                  JUNCTION     0.09     0.15  1769.96     1  11:01        0.15
  322                  JUNCTION     0.00     0.00  1775.72     0  00:00        0.00
  322A                 JUNCTION     0.00     0.00  1778.56     0  00:00        0.00
  323                  JUNCTION     0.00     0.00  1780.52     0  00:00        0.00
  324                  JUNCTION     0.00     0.00  1783.53     0  00:00        0.00
  325                  JUNCTION     0.00     0.00  1786.62     0  00:00        0.00
  325A                 JUNCTION     0.00     0.00  1789.66     0  00:00        0.00
  325B                 JUNCTION     0.00     0.00  1796.06     0  00:00        0.00
  326                  JUNCTION     0.00     0.00  1788.38     0  00:00        0.00
  327                  JUNCTION     0.00     0.00  1790.09     0  00:00        0.00
  328                  JUNCTION     0.00     0.00  1791.78     0  00:00        0.00
  33                   JUNCTION     0.24     0.36  1763.07     2  13:20        0.36
  34                   JUNCTION     0.24     0.36  1764.54     2  13:18        0.36
  35                   JUNCTION     0.24     0.36  1766.01     2  13:15        0.36
  36                   JUNCTION     0.21     0.31  1767.39     1  15:03        0.31
  37                   JUNCTION     0.10     0.15  1768.66     1  15:00        0.15
  38                   JUNCTION     0.07     0.10  1770.04     1  15:00        0.10
  39                   JUNCTION     0.05     0.08  1771.08     1  14:38        0.08
  398                  JUNCTION     0.09     0.14  1755.00     1  11:00        0.14
  399                  JUNCTION     0.08     0.13  1756.35     1  11:00        0.13
  40                   JUNCTION     0.05     0.08  1772.16     2  15:10        0.08
  41                   JUNCTION     0.05     0.08  1773.25     1  14:29        0.08
  42                   JUNCTION     0.05     0.08  1774.34     1  14:19        0.08
  420                  JUNCTION     0.06     0.09  1783.70     1  11:00        0.09
  421                  JUNCTION     0.05     0.08  1785.10     2  10:21        0.08
  422                  JUNCTION     0.05     0.08  1786.51     2  10:07        0.08
  427                  JUNCTION     0.03     0.04  1794.86     1  15:16        0.04
  428                  JUNCTION     0.02     0.03  1795.80     1  15:06        0.03
  429                  JUNCTION     0.02     0.03  1796.76     1  15:01        0.03
  43                   JUNCTION     0.04     0.06  1775.28     2  14:53        0.06
  430                  JUNCTION     0.02     0.03  1797.71     2  14:48        0.03
  44                   JUNCTION     0.03     0.04  1776.34     2  13:07        0.04
  45                   JUNCTION     0.03     0.04  1777.42     2  11:09        0.04
  46                   JUNCTION     0.02     0.04  1778.48     1  11:01        0.04
  463                  JUNCTION     0.00     0.00  1767.24     0  00:00        0.00
  464                  JUNCTION     0.00     0.00  1768.31     0  00:00        0.00
  465                  JUNCTION     0.00     0.00  1769.38     0  00:00        0.00
  46A                  JUNCTION     0.02     0.04  1778.61     1  11:00        0.04
  47                   JUNCTION     0.01     0.02  1779.52     1  11:00        0.02
  47A                  JUNCTION     0.00     0.00  1780.40     0  00:00        0.00
  48                   JUNCTION     0.00     0.00  1781.01     0  00:00        0.00
  489                  JUNCTION     0.10     0.15  1780.01     1  11:11        0.15
  489A                 JUNCTION     0.10     0.15  1780.25     1  11:09        0.15
  49                   JUNCTION     0.00     0.00  1782.53     0  00:00        0.00
  490                  JUNCTION     0.07     0.11  1781.44     1  11:07        0.11
  491                  JUNCTION     0.09     0.14  1782.47     1  11:05        0.14
  492                  JUNCTION     0.08     0.13  1783.45     1  11:03        0.13
  493                  JUNCTION     0.00     0.00  1777.90     0  00:00        0.00
  494                  JUNCTION     0.00     0.00  1775.74     0  00:00        0.00
  495                  JUNCTION     0.00     0.00  1774.82     0  00:00        0.00
  50                   JUNCTION     0.00     0.00  1784.04     0  00:00        0.00
  51                   JUNCTION     0.06     0.09  1785.65     2  15:17        0.09
  513                  JUNCTION     0.14     0.21  1827.47     1  11:00        0.21
  514                  JUNCTION     0.12     0.18  1828.40     2  10:40        0.18
  515                  JUNCTION     0.13     0.21  1828.98     2  10:35        0.21
  516                  JUNCTION     0.10     0.16  1830.31     2  10:31        0.16
  517                  JUNCTION     0.10     0.15  1830.70     2  10:13        0.15
  518                  JUNCTION     0.06     0.09  1832.14     2  10:22        0.09
  52                   JUNCTION     0.11     0.17  1788.13     2  15:16        0.17
  521                  JUNCTION     0.06     0.10  1831.85     2  10:21        0.10
  522                  JUNCTION     0.07     0.10  1833.19     2  10:10        0.10
  523                  JUNCTION     0.00     0.00  1834.43     0  00:00        0.00
  524                  JUNCTION     0.00     0.00  1835.76     0  00:00        0.00
  53                   JUNCTION     0.10     0.15  1790.52     1  15:10        0.15
  531                  JUNCTION     0.17     0.27  1840.99     1  11:00        0.27
  54                   JUNCTION     0.10     0.15  1792.93     1  15:05        0.15
  55                   JUNCTION     0.09     0.14  1795.06     1  15:01        0.14
  550                  JUNCTION     0.01     0.02  1836.61     1  11:00        0.02
  551                  JUNCTION     0.01     0.02  1837.60     2  10:23        0.02
  56                   JUNCTION     0.09     0.14  1797.57     2  14:57        0.14
  562                  JUNCTION     0.00     0.00  1816.81     0  00:00        0.00
  563                  JUNCTION     0.00     0.00  1817.19     0  00:00        0.00
  57                   JUNCTION     0.08     0.12  1801.37     2  14:54        0.12
  58                   JUNCTION     0.06     0.09  1804.02     1  14:47        0.09
  580                  JUNCTION     0.17     0.26  1791.80     2  13:13        0.26
  581                  JUNCTION     0.12     0.18  1793.74     1  16:00        0.18
  582                  JUNCTION     0.12     0.17  1795.09     1  16:00        0.17
  583                  JUNCTION     0.10     0.15  1796.42     1  16:00        0.15
  584                  JUNCTION     0.10     0.15  1797.78     1  16:00        0.15
  59                   JUNCTION     0.07     0.11  1806.69     1  16:00        0.11
  59A                  JUNCTION     0.17     0.25  1806.95     2  14:35        0.25
  60                   JUNCTION     0.04     0.05  1809.28     1  15:48        0.05
  61                   JUNCTION     0.06     0.10  1810.70     2  15:48        0.10
  618                  JUNCTION     0.05     0.08  1793.02     1  11:00        0.08
  62                   JUNCTION     0.00     0.00  1811.97     0  00:00        0.00
  622                  JUNCTION     0.12     0.19  1838.30     1  11:01        0.19
  623                  JUNCTION     0.12     0.18  1840.58     1  11:00        0.18
  624                  JUNCTION     0.12     0.18  1841.58     1  11:00        0.18
  625                  JUNCTION     0.12     0.19  1843.88     1  11:00        0.19
  626                  JUNCTION     0.12     0.19  1846.51     1  11:00        0.19
  626A                 JUNCTION     0.02     0.04  1848.65     1  11:02        0.04
  627                  JUNCTION     0.06     0.09  1848.95     1  11:00        0.09
  628                  JUNCTION     0.03     0.04  1851.44     1  11:00        0.04
  63                   JUNCTION     0.00     0.00  1813.33     0  00:00        0.00
  636                  JUNCTION     0.08     0.12  1784.48     1  11:02        0.12
  637                  JUNCTION     0.10     0.15  1798.79     1  16:00        0.15
  638                  JUNCTION     0.07     0.10  1799.60     1  15:04        0.10
  64                   JUNCTION     0.00     0.00  1814.40     0  00:00        0.00
  65                   JUNCTION     0.00     0.00  1815.05     0  00:00        0.00
  66                   JUNCTION     0.00     0.00  1815.65     0  00:00        0.00
  665                  JUNCTION     0.02     0.03  1799.91     2  14:51        0.03
  666                  JUNCTION     0.02     0.03  1802.07     2  14:27        0.03
  667                  JUNCTION     0.02     0.03  1804.23     2  14:12        0.03
  67                   JUNCTION     0.09     0.14  1817.88     2  13:51        0.14
  67A                  JUNCTION     0.13     0.19  1818.91     2  13:49        0.19
  68                   JUNCTION     0.12     0.18  1819.30     2  13:47        0.18
  689                  JUNCTION     0.11     0.18  1771.47     1  11:00        0.18
  69                   JUNCTION     0.12     0.18  1820.67     2  13:45        0.18
  693                  JUNCTION     0.00     0.00  1779.93     0  00:00        0.00
  694                  JUNCTION     0.13     0.20  1770.83     1  11:01        0.20
  696                  JUNCTION     0.00     0.00  1782.66     0  00:00        0.00
  70                   JUNCTION     0.12     0.18  1822.04     2  13:43        0.18
  704                  JUNCTION     0.11     0.18  1771.72     1  11:00        0.18
  705                  JUNCTION     0.13     0.20  1772.64     1  11:00        0.20
  709                  JUNCTION     0.13     0.20  1773.46     1  11:00        0.20
  71                   JUNCTION     0.12     0.18  1823.42     2  13:41        0.18
  713                  JUNCTION     0.11     0.18  1774.07     2  11:00        0.18
  72                   JUNCTION     0.12     0.18  1824.95     2  13:37        0.18
  72A                  JUNCTION     0.12     0.18  1825.49     2  13:36        0.18
  72B                  JUNCTION     0.12     0.18  1824.55     2  13:38        0.18
  73                   JUNCTION     0.11     0.17  1826.76     2  13:35        0.17
  733                  JUNCTION     0.08     0.12  1847.82     2  13:13        0.12
  734                  JUNCTION     0.09     0.13  1848.63     2  13:09        0.13
  735                  JUNCTION     0.09     0.13  1849.42     2  13:07        0.13
  736                  JUNCTION     0.08     0.13  1850.21     2  13:04        0.13
  737                  JUNCTION     0.06     0.09  1850.97     1  11:00        0.09
  738                  JUNCTION     0.06     0.10  1852.45     1  11:00        0.10
  739                  JUNCTION     0.06     0.09  1853.59     2  10:55        0.09
  74                   JUNCTION     0.11     0.17  1828.75     2  13:33        0.17
  744                  JUNCTION     0.09     0.13  1859.82     2  14:45        0.13
  745                  JUNCTION     0.02     0.03  1860.91     1  16:00        0.03
  746                  JUNCTION     0.02     0.03  1861.65     1  15:33        0.03
  75                   JUNCTION     0.11     0.17  1830.73     2  13:30        0.17
  76                   JUNCTION     0.11     0.16  1832.70     2  13:27        0.16
  76A                  JUNCTION     0.11     0.17  1832.37     2  13:28        0.17
  77                   JUNCTION     0.11     0.17  1834.69     2  13:25        0.17
  77A                  JUNCTION     0.11     0.17  1833.77     2  13:26        0.17
  78                   JUNCTION     0.11     0.17  1836.67     2  13:23        0.17
  787                  JUNCTION     0.18     0.28  1740.05     1  11:26        0.28
  79                   JUNCTION     0.11     0.17  1838.66     2  13:21        0.17
  790                  JUNCTION     0.07     0.10  1742.74     2  13:51        0.10
  791                  JUNCTION     0.03     0.04  1745.63     1  11:00        0.04
  792                  JUNCTION     0.02     0.04  1746.67     1  10:50        0.04
  795                  JUNCTION     0.09     0.14  1736.00     1  11:40        0.14
  795-1                JUNCTION     0.18     0.28  1734.82     1  11:42        0.28
  796                  JUNCTION     0.18     0.28  1736.84     1  11:38        0.28
  797                  JUNCTION     0.12     0.18  1737.62     1  11:34        0.18
  798                  JUNCTION     0.24     0.37  1738.06     1  11:32        0.37
  799                  JUNCTION     0.09     0.14  1738.81     1  11:27        0.14
  80                   JUNCTION     0.12     0.18  1840.14     2  13:18        0.18
  800                  JUNCTION     0.16     0.26  1740.96     1  11:23        0.26
  800A                 JUNCTION     0.16     0.25  1741.43     1  11:20        0.25
  801                  JUNCTION     0.14     0.22  1742.22     1  11:19        0.22
  80A                  JUNCTION     0.26     0.40  1841.70     2  13:18        0.40
  81                   JUNCTION     0.27     0.42  1842.23     2  13:17        0.42
  819                  JUNCTION     0.12     0.18  1764.02     1  11:01        0.18
  82                   JUNCTION     0.27     0.41  1843.44     2  13:16        0.41
  83                   JUNCTION     0.27     0.41  1844.65     2  13:15        0.41
  84                   JUNCTION     0.27     0.41  1845.56     2  13:13        0.41
  84A                  JUNCTION     0.27     0.42  1845.89     2  13:13        0.42
  85                   JUNCTION     0.27     0.41  1846.49     2  13:12        0.41
  85A                  JUNCTION     0.15     0.22  1846.43     2  13:08        0.22
  87                   JUNCTION     0.09     0.13  1846.74     1  14:46        0.13
  88                   JUNCTION     0.05     0.07  1848.47     1  15:00        0.07
  89                   JUNCTION     0.04     0.06  1850.15     1  14:25        0.06
  90                   JUNCTION     0.04     0.06  1852.14     1  14:08        0.06
  91                   JUNCTION     0.12     0.18  1746.06     1  13:10        0.18
  92                   JUNCTION     0.11     0.18  1746.66     1  13:08        0.18
  93                   JUNCTION     0.14     0.21  1747.01     1  13:05        0.21
  94                   JUNCTION     0.13     0.20  1747.34     1  13:03        0.20
  94A                  JUNCTION     0.01     0.02  1747.68     1  11:00        0.02
  95                   JUNCTION     0.17     0.25  1748.01     2  13:00        0.25
  96                   JUNCTION     0.14     0.21  1748.48     2  13:00        0.21
  97                   JUNCTION     0.13     0.21  1748.99     2  13:00        0.21
  98                   JUNCTION     0.13     0.20  1749.48     2  13:09        0.20
  99                   JUNCTION     0.15     0.23  1749.96     2  13:07        0.23
  A10                  JUNCTION     0.12     0.18  1684.99     1  16:00        0.18
  A10A                 JUNCTION     0.07     0.11  1685.67     1  16:00        0.11
  A10B                 JUNCTION     1.17     1.75  1683.25     1  13:35        1.75
  A11                  JUNCTION     0.07     0.10  1688.98     1  16:04        0.10
  A11A                 JUNCTION     0.08     0.11  1692.30     1  16:03        0.11
  A11B                 JUNCTION     0.05     0.08  1693.71     1  16:02        0.08
  A12                  JUNCTION     0.13     0.19  1694.89     1  16:02        0.19
  A13                  JUNCTION     0.11     0.17  1695.43     1  16:01        0.17
  A14                  JUNCTION     0.12     0.17  1695.95     1  16:00        0.17
  A141                 JUNCTION     0.11     0.16  1695.90     1  16:00        0.16
  A1410                JUNCTION     0.06     0.09  1725.05     1  15:17        0.09
  A1411                JUNCTION     0.06     0.09  1730.17     2  14:30        0.09
  A1412                JUNCTION     0.06     0.09  1734.19     2  14:24        0.09
  A1413                JUNCTION     0.06     0.08  1740.34     1  14:17        0.08
  A1414                JUNCTION     0.06     0.08  1745.38     2  14:08        0.08
  A1415                JUNCTION     0.06     0.08  1750.07     2  14:03        0.08
  A142                 JUNCTION     0.00     0.00  1698.11     0  00:00        0.00
  A143                 JUNCTION     0.00     0.00  1699.52     0  00:00        0.00
  A144                 JUNCTION     0.00     0.00  1700.93     0  00:00        0.00
  A145                 JUNCTION     0.08     0.12  1702.51     2  15:48        0.12
  A146                 JUNCTION     0.10     0.16  1707.44     2  15:52        0.16
  A147                 JUNCTION     0.06     0.08  1713.52     1  15:00        0.08
  A148                 JUNCTION     0.07     0.10  1716.74     1  14:45        0.10
  A149                 JUNCTION     0.07     0.10  1719.94     2  15:42        0.10
  A15                  JUNCTION     0.09     0.13  1696.03     1  16:00        0.13
  A15A                 JUNCTION     0.13     0.18  1696.77     1  16:00        0.18
  A16                  JUNCTION     0.11     0.17  1697.47     1  16:00        0.17
  A16A                 JUNCTION     0.11     0.17  1697.45     1  16:00        0.17
  A17                  JUNCTION     0.12     0.17  1698.34     1  16:00        0.17
  A18                  JUNCTION     0.10     0.16  1698.96     1  16:00        0.16
  A19                  JUNCTION     0.06     0.09  1699.51     1  16:02        0.09
  A20                  JUNCTION     0.06     0.09  1700.27     1  16:01        0.09
  A21                  JUNCTION     0.06     0.09  1701.01     1  15:02        0.09
  A22                  JUNCTION     0.08     0.12  1702.16     1  16:00        0.12
  A23                  JUNCTION     0.06     0.09  1703.38     2  15:33        0.09
  A24                  JUNCTION     0.06     0.09  1704.48     2  15:24        0.09
  A25                  JUNCTION     0.06     0.09  1705.31     1  14:37        0.09
  A26                  JUNCTION     0.04     0.06  1706.11     1  15:17        0.06
  A27                  JUNCTION     0.04     0.06  1706.94     1  15:09        0.06
  A28                  JUNCTION     0.03     0.05  1708.21     2  14:18        0.05
  A6                   JUNCTION     0.06     0.08  1682.73     1  16:16        0.08
  A7                   JUNCTION     0.18     0.27  1683.55     1  16:14        0.27
  A7A                  JUNCTION     0.17     0.26  1683.58     1  16:11        0.26
  A8                   JUNCTION     0.11     0.17  1683.79     1  16:06        0.17
  A9                   JUNCTION     0.13     0.20  1684.32     1  16:03        0.20
  AA3                  JUNCTION     1.00     1.50  1682.41     1  13:36        1.50
  AA4                  JUNCTION     0.01     0.01  1692.64     1  12:30        0.01
  AA5                  JUNCTION     0.01     0.01  1693.22     1  12:23        0.01
  AA6                  JUNCTION     0.00     0.00  1693.14     0  00:00        0.00
  AAA2                 JUNCTION     1.78     2.63  1685.63     2  12:43        2.63
  AAA2A                JUNCTION     0.73     1.09  1687.69     2  12:40        1.09
  AAA3                 JUNCTION     1.25     1.85  1683.35     2  12:48        1.85
  ABB1                 JUNCTION     0.31     0.46  2149.33     1  15:15        0.46
  ACD3                 JUNCTION     0.58     0.89  1880.07     2  14:23        0.89
  AE1                  JUNCTION     0.08     0.12  1857.29     1  15:47        0.12
  AE2                  JUNCTION     0.08     0.12  1859.54     2  15:59        0.12
  AE3                  JUNCTION     0.08     0.12  1861.64     2  15:17        0.12
  AE4                  JUNCTION     0.12     0.19  1850.06     1  11:00        0.19
  AF1Z                 JUNCTION     0.02     0.02  2050.51     1  16:00        0.02
  AG100                JUNCTION     0.39     0.60  2386.36     2  13:50        0.60
  AG101                JUNCTION     0.15     0.23  2392.60     1  14:46        0.23
  AG102                JUNCTION     0.29     0.44  2397.11     1  14:46        0.44
  AG103                JUNCTION     0.31     0.47  2399.04     1  14:45        0.47
  AG104                JUNCTION     0.27     0.41  2406.20     1  14:42        0.41
  AG105                JUNCTION     0.29     0.44  2412.48     1  14:42        0.44
  AG106                JUNCTION     0.35     0.54  2417.76     1  14:37        0.54
  AG107                JUNCTION     0.28     0.42  2425.02     1  14:38        0.42
  AG108                JUNCTION     0.33     0.50  2429.10     1  14:37        0.50
  AG109                JUNCTION     0.33     0.51  2432.81     1  14:35        0.51
  AG110                JUNCTION     0.34     0.52  2434.22     1  14:33        0.52
  AG111                JUNCTION     0.37     0.57  2434.88     1  14:32        0.57
  AG112                JUNCTION     0.38     0.58  2436.35     1  14:31        0.58
  AG113                JUNCTION     0.32     0.50  2437.28     1  13:30        0.50
  AG115                JUNCTION     0.29     0.44  2405.96     1  14:44        0.44
  AG2                  JUNCTION     0.39     0.61  1962.34     1  11:07        0.61
  AG38                 JUNCTION     0.18     0.35  2196.12     1  12:25        0.35
  AGC1                 JUNCTION     0.00     0.00  2219.12     0  00:00        0.00
  AGC2                 JUNCTION     0.00     0.00  2219.89     0  00:00        0.00
  AGC3                 JUNCTION     0.00     0.00  2221.15     0  00:00        0.00
  AGS3                 JUNCTION     0.29     0.43  1959.95     1  11:00        0.43
  AGS4                 JUNCTION     0.09     0.14  2230.98     1  11:00        0.14
  AGS5                 JUNCTION     0.16     0.24  2232.39     1  11:10        0.24
  AGS6                 JUNCTION     0.14     0.22  2233.48     1  11:06        0.22
  AGS7                 JUNCTION     0.16     0.24  2234.53     1  11:06        0.24
  AGS8                 JUNCTION     0.10     0.17  2234.82     1  11:02        0.17
  AGS9                 JUNCTION     0.00     0.00  2235.40     0  00:00        0.00
  AHW1                 JUNCTION     0.10     0.15  2625.04     1  15:25        0.15
  AI1                  JUNCTION     0.26     0.39  2035.02     1  11:03        0.39
  AIP10                JUNCTION     0.00     0.00  2201.34     0  00:00        0.00
  AIP12                JUNCTION     0.00     0.00  2203.85     0  00:00        0.00
  AIP4                 JUNCTION     0.05     0.07  2186.74     2  14:32        0.07
  AIP40                JUNCTION     0.06     0.09  1857.65     2  13:01        0.09
  AIP5                 JUNCTION     0.08     0.12  2188.28     2  14:31        0.12
  AIP6                 JUNCTION     0.08     0.11  2190.19     2  14:25        0.11
  AIP7                 JUNCTION     0.08     0.12  2192.12     1  14:15        0.12
  AIP8                 JUNCTION     0.08     0.11  2194.03     1  15:20        0.11
  AIP9                 JUNCTION     0.00     0.00  2198.63     0  00:00        0.00
  ALD10                JUNCTION     0.13     0.19  1797.95     2  13:00        0.19
  ALP14                JUNCTION     0.27     0.41  1848.97     2  13:02        0.41
  ALP2                 JUNCTION     0.23     0.36  1849.48     2  13:00        0.36
  ALP3                 JUNCTION     0.22     0.33  1849.69     2  13:00        0.33
  ALP9                 JUNCTION     0.23     0.35  1849.20     2  13:01        0.35
  AME1                 JUNCTION     0.57     0.87  1838.47     2  14:28        0.87
  AOE1                 JUNCTION     0.00     0.00  1862.70     0  00:00        0.00
  AOP1                 JUNCTION     0.05     0.07  2516.84     1  16:00        0.07
  AOP2                 JUNCTION     0.05     0.07  2518.42     1  15:57        0.07
  AOP3                 JUNCTION     0.08     0.11  2519.11     2  15:47        0.11
  AOP4                 JUNCTION     0.03     0.05  2527.97     2  15:40        0.05
  AOP5                 JUNCTION     0.04     0.06  2530.96     1  15:19        0.06
  AR10                 JUNCTION     0.27     0.41  2140.71     2  13:01        0.41
  AR10C                JUNCTION     0.16     0.25  2142.07     1  11:01        0.25
  AR11                 JUNCTION     0.21     0.33  2144.83     1  11:00        0.33
  AR11A                JUNCTION     0.20     0.31  2145.93     1  11:00        0.31
  AR12                 JUNCTION     0.14     0.22  2149.63     1  11:03        0.22
  AR13                 JUNCTION     0.20     0.32  2153.53     1  11:02        0.32
  AR14                 JUNCTION     0.19     0.30  2157.30     1  11:01        0.30
  AR15                 JUNCTION     0.19     0.30  2161.10     1  11:00        0.30
  AR16                 JUNCTION     0.19     0.29  2165.18     1  11:00        0.29
  AR17                 JUNCTION     0.19     0.29  2169.28     2  11:00        0.29
  AR2                  JUNCTION     0.20     0.30  2094.94     2  13:08        0.30
  AR21                 JUNCTION     0.24     0.38  2170.64     2  10:18        0.38
  AR22                 JUNCTION     0.25     0.40  2171.57     1  10:16        0.40
  AR23                 JUNCTION     0.25     0.39  2172.48     1  10:15        0.39
  AR24                 JUNCTION     0.16     0.28  2172.48     1  10:12        0.28
  AR25                 JUNCTION     0.18     0.28  2143.27     2  13:01        0.28
  AR26                 JUNCTION     0.17     0.26  2144.15     2  13:00        0.26
  AR27                 JUNCTION     0.15     0.23  2145.01     1  11:00        0.23
  AR28                 JUNCTION     0.18     0.29  2147.79     1  10:43        0.29
  AR2A                 JUNCTION     0.12     0.18  2097.12     1  15:09        0.18
  AR3                  JUNCTION     0.22     0.32  2103.05     2  13:08        0.32
  AR4                  JUNCTION     0.23     0.34  2108.70     2  13:06        0.34
  AR4A                 JUNCTION     0.20     0.30  2109.02     2  13:06        0.30
  AR5                  JUNCTION     0.22     0.33  2115.05     2  13:05        0.33
  AR6                  JUNCTION     0.24     0.36  2119.74     2  13:04        0.36
  AR6A                 JUNCTION     0.20     0.30  2125.67     2  13:04        0.30
  AR7                  JUNCTION     0.20     0.30  2127.03     2  13:03        0.30
  AR8                  JUNCTION     0.20     0.30  2134.38     2  13:02        0.30
  AR9                  JUNCTION     0.23     0.34  2138.27     2  13:01        0.34
  ARA1                 JUNCTION     0.13     0.20  1728.28     1  13:02        0.20
  ARB10                JUNCTION     0.09     0.14  2629.74     1  11:00        0.14
  ARL1                 JUNCTION     0.10     0.15  2703.85     2  12:16        0.15
  ARL10                JUNCTION     0.15     0.23  2727.46     1  11:40        0.23
  ARL11                JUNCTION     0.14     0.23  2728.36     1  11:36        0.23
  ARL12                JUNCTION     0.14     0.23  2729.26     1  11:29        0.23
  ARL13                JUNCTION     0.15     0.23  2730.12     2  13:00        0.23
  ARL14                JUNCTION     0.15     0.24  2731.23     1  11:27        0.24
  ARL15                JUNCTION     0.11     0.17  2732.06     1  11:18        0.17
  ARL16                JUNCTION     0.13     0.20  2733.19     1  11:15        0.20
  ARL17                JUNCTION     0.13     0.19  2734.28     1  11:05        0.19
  ARL18                JUNCTION     0.10     0.16  2735.09     2  10:48        0.16
  ARL19                JUNCTION     0.09     0.15  2735.98     2  10:45        0.15
  ARL2                 JUNCTION     0.10     0.15  2711.10     2  12:15        0.15
  ARL20                JUNCTION     0.12     0.18  2736.29     2  10:39        0.18
  ARL21                JUNCTION     0.11     0.17  2736.66     2  10:38        0.17
  ARL22                JUNCTION     0.11     0.17  2737.13     2  10:30        0.17
  ARL23                JUNCTION     0.11     0.17  2737.81     2  10:23        0.17
  ARL24                JUNCTION     0.11     0.17  2738.26     2  10:16        0.17
  ARL25                JUNCTION     0.11     0.17  2738.67     1  11:00        0.17
  ARL26                JUNCTION     0.08     0.13  2739.18     1  10:59        0.13
  ARL3                 JUNCTION     0.10     0.15  2718.75     2  12:13        0.15
  ARL4                 JUNCTION     0.19     0.29  2719.99     2  12:12        0.29
  ARL5                 JUNCTION     0.19     0.29  2721.09     2  12:08        0.29
  ARL6                 JUNCTION     0.13     0.20  2723.86     2  12:04        0.20
  ARL7                 JUNCTION     0.17     0.26  2724.79     1  11:52        0.26
  ARL8                 JUNCTION     0.15     0.23  2725.66     1  11:47        0.23
  ARL9                 JUNCTION     0.15     0.23  2726.56     1  11:41        0.23
  ARM1                 JUNCTION     0.10     0.15  2497.28     1  16:00        0.15
  ARM10                JUNCTION     0.08     0.12  2497.60     2  14:12        0.12
  ARM11                JUNCTION     0.08     0.12  2496.68     2  14:45        0.12
  ARM12                JUNCTION     0.07     0.10  2496.11     1  15:58        0.10
  ARM13                JUNCTION     0.07     0.10  2491.11     2  15:45        0.10
  ARM14                JUNCTION     0.08     0.11  2489.17     2  15:08        0.11
  ARM15                JUNCTION     0.08     0.12  2488.20     1  15:53        0.12
  ARM16                JUNCTION     0.08     0.12  2486.92     1  15:34        0.12
  ARM17                JUNCTION     0.08     0.12  2482.73     1  15:59        0.12
  ARM18                JUNCTION     0.08     0.12  2480.70     1  15:56        0.12
  ARM19                JUNCTION     0.07     0.11  2480.05     2  15:45        0.11
  ARM2                 JUNCTION     0.05     0.07  2498.76     1  16:00        0.07
  ARM20                JUNCTION     0.08     0.12  2478.56     2  15:14        0.12
  ARM21                JUNCTION     0.08     0.12  2474.38     1  15:22        0.12
  ARM22                JUNCTION     0.08     0.12  2470.68     1  15:26        0.12
  ARM23                JUNCTION     0.07     0.11  2470.17     1  15:20        0.11
  ARM24                JUNCTION     0.08     0.12  2466.29     1  15:56        0.12
  ARM25                JUNCTION     0.07     0.11  2463.62     2  15:22        0.11
  ARM26                JUNCTION     0.07     0.10  2462.14     1  15:59        0.10
  ARM27                JUNCTION     0.08     0.12  2455.22     1  15:22        0.12
  ARM3                 JUNCTION     0.04     0.05  2499.72     1  15:59        0.05
  ARM4                 JUNCTION     0.04     0.05  2503.47     1  16:00        0.05
  ARM5                 JUNCTION     0.04     0.06  2507.37     1  15:59        0.06
  ARM6                 JUNCTION     0.04     0.06  2513.62     2  15:59        0.06
  ARM7                 JUNCTION     0.05     0.07  2514.86     2  15:55        0.07
  ARM8                 JUNCTION     0.05     0.07  2515.27     2  15:46        0.07
  ARM9                 JUNCTION     0.00     0.00  2517.28     0  00:00        0.00
  ARV1                 JUNCTION     0.10     0.15  2211.47     1  15:56        0.15
  ARV11                JUNCTION     0.00     0.00  2185.48     0  00:00        0.00
  ARV2                 JUNCTION     0.14     0.22  2214.11     2  16:00        0.22
  ARV3                 JUNCTION     0.13     0.20  2215.07     1  14:14        0.20
  ARV4                 JUNCTION     0.13     0.20  2216.02     1  14:04        0.20
  ARV5                 JUNCTION     0.00     0.00  2208.50     0  00:00        0.00
  ARV6                 JUNCTION     0.00     0.00  2209.68     0  00:00        0.00
  ARV7                 JUNCTION     0.00     0.00  2210.76     0  00:00        0.00
  ASP18                JUNCTION     0.30     0.48  2579.15     1  11:32        0.48
  AVE1                 JUNCTION     0.19     0.29  1861.53     1  11:00        0.29
  AVE2                 JUNCTION     0.13     0.20  1862.13     1  11:00        0.20
  AVE23                JUNCTION     0.11     0.17  1864.76     2  10:52        0.17
  AVE24                JUNCTION     0.08     0.12  1865.58     2  10:22        0.12
  AVE25                JUNCTION     0.08     0.12  1866.24     2  10:09        0.12
  AVE26                JUNCTION     0.09     0.13  1866.86     1  10:50        0.13
  AVE27                JUNCTION     0.09     0.13  1867.55     1  11:00        0.13
  AVE3                 JUNCTION     0.12     0.19  1863.23     1  11:00        0.19
  AVE4                 JUNCTION     0.10     0.16  1863.98     1  11:00        0.16
  AVE5                 JUNCTION     0.10     0.16  1864.44     2  10:19        0.16
  AW65                 JUNCTION     0.25     0.38  2389.92     1  13:01        0.38
  AW68                 JUNCTION     0.24     0.37  2391.68     1  13:01        0.37
  AW71                 JUNCTION     0.25     0.39  2393.11     1  13:00        0.39
  AWO1                 JUNCTION     0.15     0.24  2279.31     2  13:01        0.24
  AWO2                 JUNCTION     0.13     0.20  2279.89     2  13:00        0.20
  AWO3                 JUNCTION     0.19     0.28  2280.73     2  13:00        0.28
  AWO4                 JUNCTION     0.10     0.15  2281.35     2  13:00        0.15
  AWO5                 JUNCTION     0.10     0.15  2282.11     2  13:00        0.15
  AWO5A                JUNCTION     0.04     0.06  2282.14     2  14:55        0.06
  AWO6                 JUNCTION     0.04     0.06  2282.77     2  14:40        0.06
  AWO7                 JUNCTION     0.04     0.06  2283.53     1  14:35        0.06
  AWO8                 JUNCTION     0.04     0.06  2284.28     1  14:14        0.06
  AY1                  JUNCTION     0.90     3.62  1982.61     2  15:01        3.61
  BA1Z                 JUNCTION     0.50     0.74  1925.40     1  13:00        0.74
  BAC1                 JUNCTION     0.15     0.24  2376.15     1  11:00        0.24
  BAV1                 JUNCTION     0.24     0.36  1729.05     2  13:54        0.36
  BB1                  JUNCTION     0.00     0.00  1817.26     0  00:00        0.00
  BB10                 JUNCTION     0.00     0.00  1827.78     0  00:00        0.00
  BB11                 JUNCTION     0.00     0.00  1828.85     0  00:00        0.00
  BB12                 JUNCTION     0.00     0.00  1829.62     0  00:00        0.00
  BB13                 JUNCTION     0.00     0.00  1830.38     0  00:00        0.00
  BB14                 JUNCTION     0.00     0.00  1831.13     0  00:00        0.00
  BB15                 JUNCTION     0.00     0.00  1831.87     0  00:00        0.00
  BB2                  JUNCTION     0.00     0.00  1818.50     0  00:00        0.00
  BB3                  JUNCTION     0.00     0.00  1820.25     0  00:00        0.00
  BB4                  JUNCTION     0.00     0.00  1822.27     0  00:00        0.00
  BB5                  JUNCTION     0.00     0.00  1823.15     0  00:00        0.00
  BB6                  JUNCTION     0.00     0.00  1823.70     0  00:00        0.00
  BB7                  JUNCTION     0.00     0.00  1824.84     0  00:00        0.00
  BB8                  JUNCTION     0.00     0.00  1825.82     0  00:00        0.00
  BB9                  JUNCTION     0.00     0.00  1826.80     0  00:00        0.00
  BBC1                 JUNCTION     0.28     0.43  2367.57     1  13:09        0.43
  BD1                  JUNCTION     0.06     0.09  2289.24     2  13:10        0.09
  BDB2                 JUNCTION     0.19     0.29  2327.26     2  13:00        0.29
  BDS1                 JUNCTION     0.00     0.00  2267.21     0  00:00        0.00
  BDS10                JUNCTION     0.18     0.27  2307.74     2  13:00        0.27
  BDS101               JUNCTION     0.10     0.15  2355.55     1  11:00        0.15
  BDS103               JUNCTION     0.08     0.13  2357.81     1  11:17        0.13
  BDS105               JUNCTION     0.17     0.25  2173.57     2  13:27        0.25
  BDS106               JUNCTION     0.18     0.27  2181.87     2  13:26        0.27
  BDS107               JUNCTION     0.21     0.31  2186.64     2  13:24        0.31
  BDS108               JUNCTION     0.23     0.35  2189.47     2  13:24        0.35
  BDS109               JUNCTION     0.20     0.31  2192.14     2  13:22        0.31
  BDS11                JUNCTION     0.16     0.24  2312.77     2  13:00        0.24
  BDS110               JUNCTION     0.19     0.29  2193.81     2  13:21        0.29
  BDS111               JUNCTION     0.19     0.29  2195.68     2  13:21        0.29
  BDS112               JUNCTION     0.19     0.28  2200.28     2  13:21        0.28
  BDS113               JUNCTION     0.17     0.26  2210.28     2  13:20        0.26
  BDS114               JUNCTION     0.22     0.32  2214.90     2  13:18        0.32
  BDS115               JUNCTION     0.21     0.31  2219.46     2  13:17        0.31
  BDS116               JUNCTION     0.24     0.36  2221.46     2  13:16        0.36
  BDS117               JUNCTION     0.24     0.36  2223.36     2  13:15        0.36
  BDS118               JUNCTION     0.24     0.36  2224.94     2  13:13        0.36
  BDS119               JUNCTION     0.17     0.26  2234.26     2  13:12        0.26
  BDS12                JUNCTION     0.14     0.22  2320.29     2  13:00        0.22
  BDS120               JUNCTION     0.21     0.32  2238.30     2  13:11        0.32
  BDS121               JUNCTION     0.17     0.26  2245.08     2  13:10        0.26
  BDS122               JUNCTION     0.23     0.35  2247.18     2  13:09        0.34
  BDS123               JUNCTION     0.23     0.34  2250.24     2  13:08        0.34
  BDS124               JUNCTION     0.20     0.30  2256.67     2  13:07        0.30
  BDS125               JUNCTION     0.17     0.26  2263.41     2  13:06        0.26
  BDS125A              JUNCTION     0.16     0.24  2263.65     2  13:05        0.24
  BDS126               JUNCTION     0.19     0.29  2265.81     2  13:04        0.29
  BDS13                JUNCTION     0.18     0.28  2322.20     2  13:00        0.28
  BDS132               JUNCTION     0.07     0.11  2332.53     2  13:14        0.11
  BDS132A              JUNCTION     0.03     0.04  2331.20     2  13:17        0.04
  BDS132B              JUNCTION     0.06     0.09  2331.70     2  13:16        0.09
  BDS133               JUNCTION     0.09     0.13  2333.24     2  13:08        0.13
  BDS134               JUNCTION     0.09     0.13  2333.92     2  13:01        0.13
  BDS135               JUNCTION     0.09     0.13  2334.61     2  13:00        0.13
  BDS14                JUNCTION     0.28     0.43  2323.19     2  13:03        0.43
  BDS140               JUNCTION     0.18     0.28  2328.93     2  13:00        0.28
  BDS15                JUNCTION     0.21     0.32  2323.70     2  13:01        0.32
  BDS16                JUNCTION     0.24     0.36  2324.19     2  13:00        0.36
  BDS17                JUNCTION     0.25     0.37  2324.59     2  13:00        0.37
  BDS18                JUNCTION     0.21     0.32  2325.38     2  13:11        0.32
  BDS19                JUNCTION     0.23     0.35  2326.25     2  13:04        0.35
  BDS193               JUNCTION     0.25     0.37  2265.78     2  13:05        0.37
  BDS194               JUNCTION     0.19     0.28  2266.21     1  15:04        0.28
  BDS195               JUNCTION     0.20     0.29  2266.93     1  15:03        0.29
  BDS196               JUNCTION     0.13     0.19  2267.56     1  14:34        0.19
  BDS197               JUNCTION     0.18     0.26  2268.43     1  14:28        0.26
  BDS198               JUNCTION     0.16     0.24  2269.20     1  15:38        0.24
  BDS199               JUNCTION     0.17     0.25  2269.63     1  15:55        0.25
  BDS2                 JUNCTION     0.14     0.22  2270.02     2  13:03        0.22
  BDS20                JUNCTION     0.24     0.35  2326.76     2  13:01        0.35
  BDS200               JUNCTION     0.16     0.24  2269.82     2  15:07        0.24
  BDS201               JUNCTION     0.10     0.15  2275.47     1  15:03        0.15
  BDS20A               JUNCTION     0.25     0.37  2326.92     2  13:00        0.37
  BDS21                JUNCTION     0.18     0.28  2327.50     2  13:02        0.28
  BDS21A               JUNCTION     0.16     0.24  2327.65     2  13:02        0.24
  BDS22                JUNCTION     0.22     0.32  2328.39     2  13:00        0.32
  BDS23                JUNCTION     0.19     0.28  2329.19     2  13:00        0.28
  BDS24                JUNCTION     0.22     0.32  2330.08     2  13:00        0.32
  BDS25                JUNCTION     0.20     0.29  2330.42     2  13:05        0.29
  BDS26                JUNCTION     0.12     0.18  2335.27     2  13:02        0.18
  BDS27                JUNCTION     0.12     0.18  2339.93     2  13:01        0.18
  BDS28                JUNCTION     0.11     0.17  2345.65     2  13:00        0.17
  BDS29                JUNCTION     0.11     0.16  2352.66     2  13:00        0.16
  BDS3                 JUNCTION     0.22     0.34  2271.52     2  13:03        0.34
  BDS30                JUNCTION     0.11     0.17  2359.12     2  13:00        0.17
  BDS31                JUNCTION     0.11     0.16  2366.04     2  13:00        0.16
  BDS32                JUNCTION     0.11     0.16  2369.64     2  13:00        0.16
  BDS33                JUNCTION     0.11     0.16  2373.06     2  13:00        0.16
  BDS34                JUNCTION     0.08     0.12  2377.87     1  15:59        0.12
  BDS35                JUNCTION     0.08     0.12  2382.51     2  15:59        0.12
  BDS36                JUNCTION     0.09     0.13  2385.84     1  15:52        0.13
  BDS37                JUNCTION     0.08     0.11  2393.37     2  15:51        0.11
  BDS38                JUNCTION     0.08     0.13  2398.28     2  15:55        0.13
  BDS39                JUNCTION     0.07     0.11  2406.34     1  15:38        0.11
  BDS39A               JUNCTION     0.07     0.10  2412.68     1  15:54        0.10
  BDS4                 JUNCTION     0.17     0.26  2273.14     2  13:02        0.26
  BDS40                JUNCTION     0.08     0.12  2412.04     2  16:00        0.12
  BDS41                JUNCTION     0.08     0.12  2417.76     2  15:29        0.12
  BDS42                JUNCTION     0.07     0.11  2425.88     1  16:00        0.11
  BDS43                JUNCTION     0.04     0.05  2430.70     1  15:59        0.05
  BDS43A               JUNCTION     0.04     0.06  2433.41     1  14:12        0.06
  BDS43B               JUNCTION     0.04     0.06  2436.07     2  15:18        0.06
  BDS43C               JUNCTION     0.04     0.06  2436.94     2  15:18        0.06
  BDS5                 JUNCTION     0.17     0.26  2278.20     2  13:02        0.26
  BDS6                 JUNCTION     0.16     0.24  2285.59     2  13:01        0.24
  BDS7                 JUNCTION     0.20     0.31  2288.29     2  13:00        0.31
  BDS8                 JUNCTION     0.14     0.22  2300.91     2  13:00        0.22
  BDS86                JUNCTION     0.06     0.09  2327.84     1  11:03        0.09
  BDS87                JUNCTION     0.10     0.15  2329.73     1  11:03        0.15
  BDS89                JUNCTION     0.09     0.15  2333.25     1  11:03        0.15
  BDS9                 JUNCTION     0.18     0.28  2306.03     2  13:00        0.28
  BDS91                JUNCTION     0.10     0.15  2336.35     1  11:02        0.15
  BDS93                JUNCTION     0.10     0.15  2339.65     1  11:01        0.15
  BDS95                JUNCTION     0.09     0.14  2343.69     1  11:00        0.14
  BDS99                JUNCTION     0.08     0.12  2351.82     1  11:00        0.12
  BE1                  JUNCTION     0.05     0.08  2177.89     2  13:13        0.08
  BE10                 JUNCTION     0.09     0.14  2209.14     2  13:24        0.14
  BE11                 JUNCTION     0.09     0.14  2210.24     2  13:21        0.14
  BE12                 JUNCTION     0.09     0.13  2211.33     2  13:19        0.13
  BE13                 JUNCTION     0.09     0.13  2212.44     2  13:17        0.13
  BE14                 JUNCTION     0.09     0.13  2213.53     2  13:15        0.13
  BE14A                JUNCTION     0.07     0.11  2215.28     2  14:32        0.11
  BE14B                JUNCTION     0.09     0.14  2216.19     2  14:19        0.14
  BE15                 JUNCTION     0.07     0.10  2217.30     2  13:21        0.10
  BE16                 JUNCTION     0.05     0.07  2222.07     2  13:16        0.07
  BE17                 JUNCTION     0.07     0.10  2226.30     2  13:15        0.10
  BE18                 JUNCTION     0.07     0.10  2228.80     2  13:13        0.10
  BE2                  JUNCTION     0.06     0.09  2184.17     2  13:11        0.09
  BE28                 JUNCTION     0.05     0.08  2233.88     2  13:11        0.08
  BE28A                JUNCTION     0.06     0.10  2215.51     1  12:42        0.10
  BE29                 JUNCTION     0.07     0.11  2236.51     2  13:10        0.11
  BE29A                JUNCTION     0.09     0.14  2218.30     1  12:38        0.14
  BE3                  JUNCTION     0.06     0.09  2188.01     2  13:07        0.09
  BE30                 JUNCTION     0.06     0.10  2239.48     2  13:09        0.10
  BE30A                JUNCTION     0.04     0.05  2222.05     2  15:50        0.05
  BE31A                JUNCTION     0.03     0.05  2227.05     1  14:32        0.05
  BE32A                JUNCTION     0.03     0.05  2231.30     2  14:20        0.05
  BE33A                JUNCTION     0.03     0.05  2235.85     1  14:31        0.05
  BE34A                JUNCTION     0.05     0.07  2237.27     1  14:10        0.07
  BE3A                 JUNCTION     0.06     0.09  2184.89     2  13:08        0.09
  BE4                  JUNCTION     0.07     0.10  2189.91     2  13:06        0.10
  BE5                  JUNCTION     0.10     0.16  2195.83     2  13:05        0.16
  BE6                  JUNCTION     0.10     0.16  2196.74     2  13:04        0.16
  BE7                  JUNCTION     0.10     0.16  2201.78     2  13:03        0.16
  BE8                  JUNCTION     0.11     0.17  2203.21     2  13:03        0.17
  BE9                  JUNCTION     0.12     0.19  2204.69     2  13:02        0.19
  BEL1                 JUNCTION     0.12     0.18  2222.28     1  15:59        0.18
  BEL32                JUNCTION     0.22     0.34  2426.44     1  13:34        0.34
  BER44                JUNCTION     0.12     0.18  2215.36     2  13:14        0.18
  BER45                JUNCTION     0.13     0.20  2215.80     2  13:13        0.20
  BER46                JUNCTION     0.13     0.19  2217.02     2  13:11        0.19
  BER46A               JUNCTION     0.13     0.20  2217.16     2  13:09        0.20
  BER47                JUNCTION     0.12     0.18  2217.50     2  13:09        0.18
  BER47A               JUNCTION     0.17     0.26  2217.89     2  13:07        0.26
  BER48                JUNCTION     0.10     0.15  2218.79     2  13:05        0.15
  BER49                JUNCTION     0.08     0.13  2221.67     2  13:05        0.13
  BF1                  JUNCTION     0.12     0.18  2479.34     1  15:11        0.18
  BF10                 JUNCTION     0.06     0.09  2516.09     2  14:43        0.09
  BF11                 JUNCTION     0.06     0.09  2517.54     1  14:41        0.09
  BF12                 JUNCTION     0.03     0.05  2542.62     1  15:38        0.05
  BF12A                JUNCTION     0.07     0.10  2544.17     1  15:22        0.10
  BF12B                JUNCTION     0.06     0.09  2548.24     1  15:55        0.09
  BF13                 JUNCTION     0.06     0.09  2549.50     1  15:09        0.09
  BF1A                 JUNCTION     0.17     0.25  2483.01     1  15:10        0.25
  BF2                  JUNCTION     0.14     0.22  2484.08     1  15:09        0.22
  BF3                  JUNCTION     0.14     0.22  2488.58     2  15:07        0.22
  BF3A                 JUNCTION     0.14     0.22  2489.64     1  15:06        0.22
  BF4                  JUNCTION     0.14     0.22  2493.08     1  15:05        0.22
  BF4A                 JUNCTION     0.10     0.15  2493.28     1  15:04        0.15
  BF5                  JUNCTION     0.14     0.22  2498.00     1  15:04        0.22
  BF6                  JUNCTION     0.15     0.23  2501.89     1  15:00        0.23
  BF6A                 JUNCTION     0.12     0.18  2505.74     1  14:53        0.18
  BF7                  JUNCTION     0.12     0.18  2506.54     2  14:52        0.18
  BF8                  JUNCTION     0.06     0.09  2510.38     2  14:52        0.09
  BF9                  JUNCTION     0.06     0.09  2511.54     2  14:47        0.09
  BG1                  JUNCTION     0.00     0.00  2065.60     0  00:00        0.00
  BLI1                 JUNCTION     0.17     0.27  1768.51     2  13:19        0.27
  BLI11                JUNCTION     0.07     0.11  1770.99     2  13:17        0.11
  BLI2                 JUNCTION     0.20     0.31  1771.70     2  13:15        0.31
  BLI3                 JUNCTION     0.16     0.24  1772.18     2  13:13        0.24
  BLI4                 JUNCTION     0.17     0.26  1772.35     2  13:12        0.26
  BLI5                 JUNCTION     0.17     0.26  1772.65     2  13:11        0.26
  BLI6                 JUNCTION     0.17     0.26  1772.97     2  13:10        0.26
  BLI7                 JUNCTION     0.20     0.32  1771.86     2  13:13        0.32
  BLI9                 JUNCTION     0.25     0.37  1771.58     2  13:16        0.37
  BLT3                 JUNCTION     0.23     0.35  1721.13     2  13:02        0.35
  BN1                  JUNCTION     0.17     0.26  1743.52     1  11:18        0.26
  BN10                 JUNCTION     0.13     0.21  1745.62     1  11:10        0.21
  BN11                 JUNCTION     0.13     0.20  1747.29     1  11:07        0.20
  BN12                 JUNCTION     0.14     0.21  1748.78     1  11:05        0.21
  BN13                 JUNCTION     0.13     0.21  1750.26     1  11:04        0.21
  BN14                 JUNCTION     0.23     0.36  1750.80     1  11:02        0.36
  BN15                 JUNCTION     0.03     0.04  1745.98     1  11:03        0.04
  BN16                 JUNCTION     0.03     0.04  1746.54     2  10:57        0.04
  BN5                  JUNCTION     0.14     0.22  1744.50     1  11:14        0.22
  BN9                  JUNCTION     0.13     0.21  1745.03     1  11:11        0.21
  BO9                  JUNCTION     0.04     0.06  1755.93     2  14:56        0.06
  BP17                 JUNCTION     0.01     0.01  1740.98     1  11:00        0.01
  BP18                 JUNCTION     0.01     0.01  1740.53     1  11:00        0.01
  BP19                 JUNCTION     0.01     0.01  1740.11     1  11:06        0.01
  BP1Z                 JUNCTION     0.21     0.33  2147.29     1  11:00        0.33
  BP20                 JUNCTION     0.01     0.01  1739.50     1  11:54        0.01
  BP21                 JUNCTION     0.01     0.02  1738.90     1  13:28        0.02
  BP28                 JUNCTION     0.00     0.00  1740.56     1  11:00        0.00
  BP3-1                JUNCTION     0.16     0.24  1733.57     2  13:07        0.24
  BP4                  JUNCTION     0.00     0.00  1738.26     1  13:31        0.00
  BP4-1                JUNCTION     0.20     0.31  1732.34     1  11:56        0.31
  BP4-2                JUNCTION     0.21     0.32  1732.65     2  13:07        0.32
  BPI1                 JUNCTION     0.20     0.30  2214.60     1  14:41        0.30
  BPI1A                JUNCTION     0.14     0.20  2214.86     2  15:38        0.20
  BPI2                 JUNCTION     0.17     0.26  2215.68     1  15:38        0.26
  BPI3                 JUNCTION     0.16     0.25  2216.60     1  15:38        0.25
  BPI4                 JUNCTION     0.18     0.27  2217.61     2  15:51        0.27
  BPI5                 JUNCTION     0.18     0.26  2217.98     1  16:00        0.26
  BPI9                 JUNCTION     0.17     0.26  2220.28     1  14:37        0.26
  BPS1                 JUNCTION     0.10     0.16  2238.44     1  11:00        0.16
  BPT1                 JUNCTION     0.08     0.12  2244.16     1  11:00        0.12
  BPT2                 JUNCTION     0.05     0.08  2250.71     1  11:00        0.08
  BPT2A                JUNCTION     0.05     0.08  2252.92     2  10:12        0.08
  BPY1                 JUNCTION     0.08     0.12  2219.66     1  11:00        0.12
  BR1                  JUNCTION     0.04     0.06  1675.64     2  14:47        0.06
  BR2                  JUNCTION     0.04     0.06  1672.61     1  14:43        0.06
  BR3                  JUNCTION     0.04     0.06  1669.11     2  14:56        0.06
  BRC1                 JUNCTION     0.06     0.10  2304.76     2  13:03        0.10
  BRE1                 JUNCTION     0.26     0.39  1774.14     2  13:03        0.39
  BRI17                JUNCTION     0.13     0.19  1617.94     1  12:01        0.19
  BRI18                JUNCTION     0.12     0.18  1619.73     1  12:00        0.18
  BRI19                JUNCTION     0.12     0.17  1621.32     2  11:45        0.17
  BRI19A               JUNCTION     0.12     0.18  1622.24     2  11:34        0.18
  BRI2                 JUNCTION     0.10     0.15  1631.80     1  16:00        0.15
  BRI20                JUNCTION     0.12     0.17  1622.92     2  11:41        0.17
  BRI21                JUNCTION     0.12     0.17  1624.10     2  11:35        0.17
  BRI22                JUNCTION     0.08     0.12  1625.27     2  14:38        0.12
  BRI23                JUNCTION     0.09     0.13  1626.30     1  14:26        0.13
  BRI24                JUNCTION     0.09     0.13  1627.46     1  15:17        0.13
  BRI25                JUNCTION     0.09     0.13  1627.85     1  15:40        0.13
  BRI26                JUNCTION     0.08     0.12  1629.16     2  15:14        0.12
  BRI27                JUNCTION     0.09     0.13  1630.21     1  15:22        0.13
  BRI28                JUNCTION     0.09     0.13  1630.67     1  15:09        0.13
  BRI29                JUNCTION     0.00     0.00  1631.55     0  00:00        0.00
  BRW1                 JUNCTION     0.00     0.00  1769.90     0  00:00        0.00
  BRW3                 JUNCTION     0.00     0.00  1769.09     0  00:00        0.00
  BS10                 JUNCTION     0.22     0.34  2171.67     2  13:00        0.34
  BS11                 JUNCTION     0.22     0.34  2173.44     2  13:00        0.34
  BS12                 JUNCTION     0.22     0.34  2175.21     2  13:00        0.34
  BS13                 JUNCTION     0.22     0.34  2176.98     2  13:00        0.34
  BS14                 JUNCTION     0.22     0.34  2178.74     2  13:00        0.34
  BS15                 JUNCTION     0.22     0.33  2180.51     2  13:00        0.33
  BS16                 JUNCTION     0.13     0.20  2191.82     2  13:00        0.20
  BS17                 JUNCTION     0.21     0.33  2193.74     2  13:00        0.33
  BS18                 JUNCTION     0.22     0.34  2195.66     2  13:00        0.34
  BS19                 JUNCTION     0.20     0.31  2196.89     2  13:00        0.31
  BS49                 JUNCTION     0.11     0.16  2166.58     2  13:07        0.16
  BSC1                 JUNCTION     0.37     0.55  1926.24     1  13:16        0.55
  BSH1                 JUNCTION     0.16     0.27  1598.78     2  13:02        0.27
  BUC1                 JUNCTION     0.09     0.14  2094.33     1  15:06        0.14
  BUC2                 JUNCTION     0.12     0.19  2098.27     1  11:39        0.19
  BUC23                JUNCTION     0.12     0.19  2110.24     2  13:00        0.19
  BUC25                JUNCTION     0.12     0.19  2111.28     2  13:00        0.19
  BUC27                JUNCTION     0.12     0.19  2113.03     2  13:00        0.19
  BUC3                 JUNCTION     0.12     0.19  2098.95     2  13:05        0.19
  BUC30                JUNCTION     0.09     0.15  2114.70     2  13:03        0.15
  BUC35                JUNCTION     0.10     0.14  2111.77     1  15:03        0.14
  BUC4                 JUNCTION     0.12     0.19  2099.31     2  13:04        0.19
  BUC5                 JUNCTION     0.08     0.13  2104.45     2  13:03        0.13
  BUC6                 JUNCTION     0.09     0.15  2108.12     2  13:02        0.14
  BUC7                 JUNCTION     0.13     0.20  2109.17     2  13:01        0.20
  BV23                 JUNCTION     0.06     0.09  1883.12     2  10:23        0.09
  BV24                 JUNCTION     0.05     0.07  1886.68     1  11:00        0.07
  BV25                 JUNCTION     0.03     0.05  1897.57     2  10:04        0.05
  BV26                 JUNCTION     0.00     0.01  1899.41     1  15:00        0.01
  BV27                 JUNCTION     0.00     0.01  1903.51     1  16:44        0.01
  BV28                 JUNCTION     0.00     0.01  1909.43     1  16:33        0.01
  BV54                 JUNCTION     0.00     0.01  1913.24     1  16:20        0.01
  BV55                 JUNCTION     0.00     0.01  1917.26     1  16:14        0.01
  BV56                 JUNCTION     0.00     0.01  1923.98     1  16:08        0.01
  BV57                 JUNCTION     0.00     0.00  1936.84     1  16:04        0.00
  BVO1                 JUNCTION     0.14     0.22  1879.70     2  13:00        0.22
  BVO2                 JUNCTION     0.19     0.30  1881.08     2  10:46        0.30
  BVO3                 JUNCTION     0.06     0.09  1881.63     2  10:40        0.09
  BVO4                 JUNCTION     0.06     0.09  1882.41     1  11:02        0.09
  BVO5                 JUNCTION     0.03     0.05  1883.15     2  10:25        0.05
  BVV1                 JUNCTION     0.12     0.20  1849.95     2  13:00        0.20
  BVV1A                JUNCTION     0.12     0.20  1849.94     2  13:01        0.20
  BVV20                JUNCTION     0.10     0.16  1850.37     1  11:00        0.16
  BVV28                JUNCTION     0.10     0.15  1850.61     1  11:00        0.15
  BW1                  JUNCTION     0.08     0.13  2006.28     1  11:00        0.13
  BW2                  JUNCTION     0.02     0.03  2009.65     1  11:00        0.03
  BYPASS1              JUNCTION     0.61     0.92  1678.72     1  13:42        0.92
  BYPASS2              JUNCTION     0.45     0.66  1678.46     1  13:43        0.66
  C100                 JUNCTION     0.50     0.77  1897.57     1  11:22        0.77
  C101                 JUNCTION     0.56     0.86  1906.16     1  11:22        0.86
  C102                 JUNCTION     0.72     1.14  1906.84     1  11:21        1.14
  C102A                JUNCTION     0.11     0.17  1908.97     2  10:41        0.17
  C103                 JUNCTION     0.43     0.66  1907.81     1  11:21        0.66
  C103A                JUNCTION     0.03     0.05  1909.15     1  16:00        0.05
  C104                 JUNCTION     0.66     1.05  1909.95     1  11:20        1.05
  C105                 JUNCTION     0.69     1.06  1912.16     1  11:20        1.06
  C106                 JUNCTION     0.67     1.02  1918.52     1  11:19        1.02
  C107                 JUNCTION     0.73     1.11  1920.28     1  11:19        1.11
  C108                 JUNCTION     0.67     1.02  1923.42     1  11:18        1.02
  C109                 JUNCTION     0.67     1.02  1928.43     1  11:17        1.02
  C110                 JUNCTION     0.63     0.97  1929.64     1  11:16        0.97
[...]
  XT127XT126              1.00   0.00  0.00  0.00  0.00  0.75  0.00  0.00  0.75  0.00
  XT128XT127              1.00   0.00  0.00  0.00  0.00  0.75  0.00  0.00  0.16  0.00
  XT129XT128              1.00   0.00  0.00  0.00  0.00  0.00  0.00  0.75  0.00  0.00
  XT12XT11                1.00   0.00  0.00  0.00  0.00  0.75  0.00  0.00  0.75  0.00
  XT130XT129              1.00   0.00  0.00  0.00  0.00  0.00  0.00  0.75  0.00  0.00
  XT131XT130              1.19   0.00  0.00  0.00  0.00  0.00  0.00  0.75  0.00  0.00
  XT132XT131              1.00   0.00  0.00  0.00  0.00  0.75  0.00  0.00  0.75  0.00
  XT133PF12               2.08   0.00  0.00  0.00  0.00  0.00  0.00  0.75  0.00  0.00
  XT134PF13               1.00   0.00  0.00  0.00  0.75  0.00  0.00  0.00  0.00  0.00
  XT135XT134              1.00   0.00  0.00  0.00  0.57  0.00  0.00  0.17  0.00  0.00
  XT136XT135              6.41   0.00  0.00  0.00  0.00  0.00  0.00  0.75  0.00  0.00
  XT137XT136              1.00   0.00  0.00  0.00  0.00  0.00  0.00  0.75  0.00  0.00
  XT138XT137              1.00   0.00  0.00  0.00  0.75  0.00  0.00  0.00  0.00  0.00
  XT139XT138             33.70   0.00  0.00  0.00  0.75  0.00  0.00  0.00  0.75  0.00
  XT13XT12                1.00   0.00  0.00  0.00  0.00  0.75  0.00  0.00  0.00  0.00
  XT140XT138              2.02   0.00  0.00  0.00  0.75  0.00  0.00  0.00  0.00  0.00
  XT141XT140              1.00   0.00  0.00  0.00  0.00  0.00  0.00  0.75  0.00  0.00
  XT142XT141              2.57   0.00  0.00  0.00  0.00  0.00  0.00  0.75  0.00  0.00
  XT143PF14               1.00   0.00  0.00  0.00  0.00  0.00  0.00  0.75  0.00  0.00
  XT144NEV7               1.00   0.00  0.00  0.00  0.00  0.75  0.00  0.00  0.00  0.00
  XT145XT144              1.00   0.00  0.00  0.00  0.00  0.00  0.00  0.75  0.00  0.00
  XT146XT145              1.00   0.00  0.00  0.00  0.00  0.00  0.00  0.75  0.00  0.00
  XT147XT146              1.00   0.00  0.00  0.00  0.00  0.00  0.00  0.75  0.00  0.00
  XT14XT13                1.38   0.00  0.00  0.00  0.00  0.75  0.00  0.00  0.75  0.00
  XT15XT14                1.00   0.00  0.00  0.00  0.00  0.75  0.00  0.00  0.41  0.00
  XT16XT15                1.00   0.00  0.00  0.00  0.00  0.75  0.00  0.00  0.00  0.00
  XT1XT119                1.00   0.00  0.00  0.00  0.21  0.54  0.00  0.00  0.75  0.00
  XT20AXT16               5.79   0.00  0.00  0.00  0.00  0.75  0.00  0.00  0.75  0.00
  XT20T20A                1.64   0.00  0.00  0.00  0.00  0.75  0.00  0.00  0.75  0.00
  XT21XT20A               1.00   0.00  0.00  0.00  0.00  0.75  0.00  0.00  0.75  0.00
  XT22XT21                1.00   0.00  0.00  0.00  0.00  0.75  0.00  0.00  0.00  0.00
  XT23XT22                1.78   0.00  0.00  0.00  0.00  0.75  0.00  0.00  0.75  0.00
  XT24XT23                1.00   0.00  0.00  0.00  0.00  0.75  0.00  0.00  0.75  0.00
  XT25XT24                5.18   0.00  0.00  0.00  0.00  0.75  0.00  0.00  0.63  0.00
  XT26XT25                1.00   0.00  0.00  0.00  0.00  0.75  0.00  0.00  0.00  0.00
  XT27XT26                6.34   0.00  0.00  0.00  0.00  0.75  0.00  0.00  0.38  0.00
  XT28XT27                1.00   0.00  0.00  0.00  0.00  0.00  0.00  0.75  0.00  0.00
  XT29XT28                1.88   0.00  0.00  0.00  0.00  0.75  0.00  0.00  0.75  0.00
  XT2XT1                  1.00   0.00  0.00  0.00  0.00  0.75  0.00  0.00  0.75  0.00
  XT30XT29                1.00   0.00  0.00  0.00  0.00  0.75  0.00  0.00  0.28  0.00
  XT31XT30                1.00   0.00  0.00  0.00  0.00  0.75  0.00  0.00  0.00  0.00
  XT32XT31                8.26   0.00  0.00  0.00  0.00  0.75  0.00  0.00  0.75  0.00
  XT33XT32                1.00   0.00  0.00  0.00  0.00  0.75  0.00  0.00  0.00  0.00
  XT34AXT34               4.35   0.00  0.75  0.00  0.00  0.00  0.00  0.00  0.00  0.00
  XT34BXT34A              1.17   0.75  0.00  0.00  0.00  0.00  0.00  0.00  0.00  0.00
  XT34CTF33               3.85   0.00  0.00  0.00  0.00  0.75  0.00  0.00  0.00  0.00
  XT34CXT34B              6.52   0.75  0.00  0.00  0.00  0.00  0.00  0.00  0.00  0.00
  XT34XT33                1.00   0.00  0.00  0.00  0.75  0.00  0.00  0.00  0.75  0.00
  XT35XT34                1.00   0.00  0.00  0.00  0.00  0.75  0.00  0.00  0.75  0.00
  XT36XT35                1.00   0.00  0.00  0.00  0.00  0.75  0.00  0.00  0.00  0.00
  XT37XT36                1.00   0.00  0.00  0.00  0.00  0.75  0.00  0.00  0.75  0.00
  XT38XT37                1.00   0.00  0.00  0.00  0.00  0.75  0.00  0.00  0.47  0.00
  XT39XT38                1.00   0.00  0.00  0.00  0.00  0.75  0.00  0.00  0.00  0.00
  XT3XT2                  1.00   0.00  0.00  0.00  0.00  0.75  0.00  0.00  0.69  0.00
  XT40XT39                1.00   0.00  0.00  0.00  0.00  0.75  0.00  0.00  0.75  0.00
  XT41XT40                1.00   0.00  0.00  0.00  0.00  0.75  0.00  0.00  0.75  0.00
  XT42XT41                1.00   0.00  0.00  0.00  0.00  0.75  0.00  0.00  0.00  0.00
  XT43AXT43               1.00   0.00  0.00  0.00  0.00  0.75  0.00  0.00  0.00  0.00
  XT43XT42                1.00   0.00  0.00  0.00  0.00  0.75  0.00  0.00  0.75  0.00
  XT44AXT44               1.00   0.00  0.00  0.00  0.00  0.75  0.00  0.00  0.75  0.00
  XT44XT43A               1.00   0.00  0.00  0.00  0.00  0.75  0.00  0.00  0.75  0.00
  XT45AXT45               1.00   0.00  0.00  0.00  0.00  0.75  0.00  0.00  0.75  0.00
  XT45XT44A               1.00   0.00  0.00  0.00  0.00  0.75  0.00  0.00  0.00  0.00
  XT46XT45A               6.29   0.00  0.00  0.00  0.00  0.75  0.00  0.00  0.00  0.00
  XT47XT46                1.00   0.00  0.00  0.00  0.00  0.75  0.00  0.00  0.75  0.00
  XT48XT47                1.00   0.00  0.00  0.00  0.00  0.75  0.00  0.00  0.00  0.00
  XT49XT48                1.87   0.00  0.00  0.00  0.00  0.75  0.00  0.00  0.75  0.00
  XT4XT3                  2.08   0.00  0.00  0.00  0.00  0.75  0.00  0.00  0.00  0.00
  XT50XT49                4.79   0.00  0.00  0.00  0.00  0.75  0.00  0.00  0.69  0.00
  XT51XT50                1.00   0.00  0.00  0.00  0.00  0.75  0.00  0.00  0.75  0.00
  XT52XT51                1.38   0.00  0.00  0.00  0.00  0.75  0.00  0.00  0.00  0.00
  XT53XT52                1.01   0.00  0.00  0.00  0.00  0.75  0.00  0.00  0.75  0.00
  XT54XT53                2.59   0.00  0.00  0.00  0.00  0.75  0.00  0.00  0.75  0.00
  XT55XT54                1.00   0.00  0.00  0.00  0.00  0.75  0.00  0.00  0.00  0.00
  XT56XT55                1.00   0.00  0.00  0.00  0.75  0.00  0.00  0.00  0.20  0.00
  XT57XT56                2.04   0.00  0.00  0.00  0.75  0.00  0.00  0.00  0.00  0.00
  XT58XT57                1.00   0.00  0.00  0.00  0.75  0.00  0.00  0.00  0.74  0.00
  XT59XT58                1.00   0.00  0.00  0.00  0.75  0.00  0.00  0.00  0.35  0.00
  XT5XT4                  1.00   0.00  0.00  0.00  0.00  0.36  0.00  0.39  0.35  0.00
  XT60XT59                6.55   0.00  0.00  0.00  0.75  0.00  0.00  0.00  0.00  0.00
  XT61XT60                1.00   0.00  0.00  0.00  0.75  0.00  0.00  0.00  0.75  0.00
  XT62XT61                1.00   0.00  0.00  0.00  0.00  0.75  0.00  0.00  0.22  0.00
  XT63XT62                2.65   0.00  0.00  0.00  0.00  0.75  0.00  0.00  0.00  0.00
  XT64AXT64               1.00   0.00  0.00  0.00  0.00  0.75  0.00  0.00  0.75  0.00
  XT64BXT64A              1.45   0.00  0.00  0.00  0.00  0.75  0.00  0.00  0.56  0.00
  XT64XT63                1.00   0.00  0.00  0.00  0.00  0.61  0.00  0.14  0.58  0.00
  XT65AXT65               1.00   0.00  0.00  0.00  0.00  0.75  0.00  0.00  0.00  0.00
  XT65XT64B               1.00   0.00  0.00  0.00  0.00  0.75  0.00  0.00  0.01  0.00
  XT66AXT66               1.00   0.00  0.00  0.00  0.00  0.75  0.00  0.00  0.01  0.00
  XT66XT65A               1.00   0.00  0.00  0.00  0.00  0.00  0.00  0.75  0.00  0.00
  XT67XT66A               1.00   0.00  0.00  0.00  0.00  0.75  0.00  0.00  0.75  0.00
  XT68XT67                4.13   0.00  0.00  0.00  0.00  0.75  0.00  0.00  0.75  0.00
  XT69XT68                1.00   0.00  0.00  0.00  0.00  0.75  0.00  0.00  0.00  0.00
  XT6XT5                  1.00   0.00  0.00  0.00  0.00  0.75  0.00  0.00  0.58  0.00
  XT70XT69                1.00   0.00  0.00  0.00  0.00  0.75  0.00  0.00  0.75  0.00
  XT71XT70                6.61   0.75  0.00  0.00  0.00  0.00  0.00  0.00  0.00  0.00
  XT72XT71                1.00   0.75  0.00  0.00  0.00  0.00  0.00  0.00  0.00  0.00
  XT7XT6                  1.00   0.00  0.00  0.00  0.00  0.75  0.00  0.00  0.62  0.00
  XT83AXT83               1.00   0.00  0.00  0.00  0.00  0.75  0.00  0.00  0.00  0.00
  XT83XT68                3.55   0.00  0.00  0.00  0.00  0.00  0.00  0.75  0.00  0.00
  XT84XT83A               1.00   0.00  0.00  0.00  0.75  0.00  0.00  0.00  0.00  0.00
  XT85AXT85               2.27   0.00  0.00  0.00  0.75  0.00  0.00  0.00  0.00  0.00
  XT85BXT84               1.00   0.00  0.00  0.00  0.75  0.00  0.00  0.00  0.75  0.00
  XT85XT85B               1.00   0.00  0.00  0.00  0.00  0.75  0.00  0.00  0.72  0.00
  XT86TRO2               72.99   0.00  0.00  0.00  0.00  0.75  0.00  0.00  0.75  0.00
  XT87XT86               20.68   0.00  0.75  0.00  0.00  0.00  0.00  0.00  0.00  0.00
  XT88F67B                1.00   0.00  0.00  0.00  0.00  0.00  0.00  0.75  0.00  0.00
  XT88XT87               16.55   0.75  0.00  0.00  0.00  0.00  0.00  0.00  0.00  0.00
  XT8XT7                  1.00   0.00  0.00  0.00  0.00  0.75  0.00  0.00  0.00  0.00
  XT91AZMGM10B            1.00   0.00  0.00  0.00  0.75  0.00  0.00  0.00  0.00  0.00
  XT91XT91A               1.27   0.00  0.00  0.00  0.75  0.00  0.00  0.00  0.75  0.00
  XT92SSW1                2.64   0.00  0.75  0.00  0.00  0.00  0.00  0.00  0.00  0.00
  XT9XT8                  1.29   0.00  0.00  0.00  0.00  0.75  0.00  0.00  0.75  0.00
  YA1005                  1.00   0.00  0.00  0.00  0.75  0.00  0.00  0.00  0.75  0.00
  YH1493                  1.00   0.75  0.00  0.00  0.00  0.00  0.00  0.00  0.00  0.00
  YH2SRT1                 2.41   0.00  0.00  0.00  0.00  0.00  0.00  0.75  0.00  0.00
  YH3YH2                  1.00   0.00  0.00  0.00  0.00  0.00  0.00  0.75  0.00  0.00
  YH4YH3                  1.00   0.00  0.00  0.00  0.00  0.00  0.00  0.75  0.00  0.00
  YH5YH4                  1.00   0.00  0.00  0.00  0.75  0.00  0.00  0.00  0.75  0.00
  YH6YH5                  1.00   0.00  0.00  0.00  0.75  0.00  0.00  0.00  0.46  0.00
  YH7YH6                  1.00   0.00  0.00  0.00  0.75  0.00  0.00  0.00  0.54  0.00
  YH8YH7                  1.00   0.00  0.00  0.00  0.75  0.00  0.00  0.00  0.57  0.00
  Z16107EZ16107F          1.00   0.00  0.00  0.00  0.00  0.75  0.00  0.00  0.75  0.00
  Z16107FD51A             2.62   0.00  0.00  0.00  0.00  0.75  0.00  0.00  0.00  0.00
  Z16212EZ16212F          1.00   0.00  0.00  0.00  0.75  0.00  0.00  0.00  0.00  0.00
  Z16214CFWB5             1.57   0.00  0.00  0.00  0.00  0.00  0.00  0.75  0.00  0.00
  Z16225ABV57             1.00   0.00  0.00  0.00  0.75  0.00  0.00  0.00  0.00  0.00
  Z17702GZ17702H          1.00   0.00  0.00  0.00  0.75  0.00  0.00  0.00  0.75  0.00
  Z17702HSN22             2.10   0.00  0.00  0.00  0.00  0.00  0.00  0.75  0.00  0.00
  ZLS#18ALS#18           42.66   0.75  0.00  0.00  0.00  0.00  0.00  0.00  0.00  0.00
  ZM101AM101              1.00   0.75  0.00  0.00  0.00  0.00  0.00  0.00  0.00  0.00
  ZMGM10AMGM10            2.22   0.00  0.00  0.00  0.00  0.75  0.00  0.00  0.00  0.00
  ZMGM10BZMGM10A          1.00   0.00  0.00  0.00  0.75  0.00  0.00  0.00  0.00  0.00
  ZMOR10AMOR10            1.00   0.00  0.00  0.00  0.00  0.00  0.00  0.75  0.00  0.00
  ZN72AN72                5.12   0.00  0.00  0.00  0.00  0.00  0.00  0.75  0.00  0.00
  ZNB3ANB3                1.00   0.00  0.00  0.00  0.75  0.00  0.00  0.00  0.65  0.00
  ZNB6BNB6                1.00   0.00  0.00  0.00  0.75  0.00  0.00  0.00  0.42  0.00
  ZNB7ANB7               10.84   0.00  0.00  0.00  0.75  0.00  0.00  0.00  0.00  0.00
  ZPIN45APIN45            1.00   0.75  0.00  0.00  0.00  0.00  0.00  0.00  0.00  0.00
  ZPIN45BZPIN45A          5.80   0.75  0.00  0.00  0.00  0.00  0.00  0.00  0.00  0.00
  ZPSL20APSL20            1.00   0.00  0.06  0.00  0.68  0.00  0.00  0.00  0.00  0.00
  ZPSL20CPSL20            1.00   0.00  0.06  0.00  0.68  0.00  0.00  0.00  0.00  0.00
  ZPSL20EZPSL20F          1.00   0.00  0.00  0.00  0.75  0.00  0.00  0.00  0.00  0.00
  ZSLI114ASLI114          1.00   0.00  0.00  0.00  0.75  0.00  0.00  0.00  0.75  0.00
  ZTS8ATS8                8.75   0.00  0.00  0.00  0.00  0.00  0.00  0.75  0.00  0.00
  
  
  *************************
  Conduit Surcharge Summary
  *************************
  
  ----------------------------------------------------------------------------
                                                           Hours        Hours 
                         --------- Hours Full --------   Above Full   Capacity
  Conduit                Both Ends  Upstream  Dnstream   Normal Flow   Limited
  ----------------------------------------------------------------------------
  A145TS4                     0.01      0.01     59.59      0.01         0.01
  AY1LS#16                   27.17     27.17     71.00      0.01         0.01
  C111AC111                   0.01      0.01     51.27      0.01         0.01
  CDT-117                     0.01      0.01      3.49      0.01         0.01
  CDT-161                     0.01      0.01      5.27      0.01         0.01
  DBWRC_IN                    0.01      0.01      0.01     67.41         0.01
  DI2BNFK2                    0.01      0.01     71.00      0.01         0.01
  FORCEMAIN                  12.68     12.68     63.14     10.85         2.57
  FT13AT17                    0.01      0.01     61.76      0.01         0.01
  FT24AT25                    0.01      0.01     54.15      0.01         0.01
  FWB8LS#16                  20.04     20.04     50.35      0.01         0.01
  LS#10WDP1                   0.01     64.08      0.01     61.89         0.01
  LS#11W43A                  71.00     71.00     71.00     71.00        71.00
  LS#16ZFWB5B                 0.01     61.92      0.01     64.05         0.01
  LS#18HD1                    0.01     71.00      0.01     71.00         0.01
  LS#32ZBE14AC                0.01     29.73      0.01     23.52         0.01
  LS#36MTE1                   0.01      0.01     71.00      0.01         0.01
  LS#3W1LS#3                 33.92     33.92     51.34      0.01         0.01
  LS#3W2LS#3                 54.28     54.28     71.00      0.01         0.01
  LS#8SEV2                    0.01     57.00      0.01     56.92         0.01
  LS#9SLI41                   0.01      0.01     71.00      0.01         0.01
  LVM5LVM4                    0.01      0.01      5.43      0.01         0.01
  N24CN24                     0.01      0.01     71.00      0.01         0.01
  N35A1RHS8                   0.01      0.01      6.12      0.01         0.01
  N35DRHS12                   0.01      0.01     38.92      0.01         0.01
  ND4ND3                      0.01      0.01      0.01     21.05         0.01
  OSR13OSR12                  0.01      0.01      0.01     68.94         0.01
  OSR5OSR4                    0.01      0.01      0.01     55.70         0.01
  PLT10PLT93_                71.00     71.00     71.00      0.01         0.01
  PLT93_PLT69                 0.01      0.01     71.00      0.01         0.01
  PSL20PSL19                  0.01      0.01      0.43      0.01         0.01
  PSL2ZPSL2A                  0.01      0.01     71.00      0.01         0.01
  RHS12RHS11                  0.01     38.92      0.01     56.00         0.01
  RHS4RHS3                    0.01      0.01      0.01      6.26         0.01
  RPR15RPR14                  0.01      0.01     49.88      0.01         0.01
  RPR5RPR4                    0.01      0.01      0.01     15.52         0.01
  SOS35SOS34                  0.01      0.01     71.00      0.01         0.01
  SOS36SOS35                  0.01      0.01     71.00      0.01         0.01
  SY2LS#33W                   0.01      0.01     10.33      0.01         0.01
  T9T8                        0.01      0.01      0.01      0.01         0.01
  UNE1ND4                     0.01      0.01      0.01     21.17         0.01
  UV8XT58                     0.01      0.01     30.19      0.01         0.01
  Z16212EZ16212F             65.08     65.08     71.00      0.01         0.01
  ZPSL20APSL20                0.01      0.01     63.46      0.01         0.01
  ZPSL20CPSL20                0.01      0.01     63.46      0.01         0.01
  ZPSL20EZPSL20F             63.46     63.50     63.46      1.01         0.94
  
  
  ***************
  Pumping Summary
  ***************
  
  ---------------------------------------------------------------------------------------------------------
                                                  Min       Avg       Max     Total     Power    % Time Off
                        Percent   Number of      Flow      Flow      Flow    Volume     Usage    Pump Curve
  Pump                 Utilized   Start-Ups       GPM       GPM       GPM  10^6 gal     Kw-hr    Low   High
  ---------------------------------------------------------------------------------------------------------
  LS#34AP2                 0.00           0      0.00      0.00      0.00     0.000      0.00    0.0    0.0
  LS#34AP3                 0.00           0      0.00      0.00      0.00     0.000      0.00    0.0    0.0
  LS10-1                  74.74           0      0.00     35.76    141.04     0.158     12.30    0.0    0.0
  LS11-1                  74.74           0      0.00     59.84     80.70     0.248     12.80    0.0    0.0
  LS12-1                  74.74           0      0.00      8.81     10.87     0.037      2.05    0.0    0.0
  LS13-1                  74.74           0      0.00     18.70     25.21     0.078      7.01    0.0    0.0
  LS15-1                  74.74           0      0.00      8.41     10.58     0.035      1.57    0.0    0.0
  LS16-1                  74.74           0      0.00    173.86    194.66     0.731     22.73    0.0    0.0
  LS18-1                   0.00           0      0.00      0.00      0.00     0.000      0.00    0.0    0.0
  LS19-1                  74.74           0      0.00     13.44     18.12     0.056      3.90    0.0    0.0
  LS20-1                  74.74           0      0.00      1.98      2.45     0.008      0.30    0.0    0.0
  LS27-1                  74.74           0      0.00    795.05   1024.35     3.333   1269.79    0.0    0.0
  LS3-1                   57.31         143      0.00   2351.28   2471.86     7.682    443.46    0.0    0.0
  LS3-2                    0.00           0      0.00      0.00      0.00     0.000      0.00    0.0    0.0
  LS3-3                    0.00           0      0.00      0.00      0.00     0.000      0.00    0.0    0.0
  LS3-4                    0.00           0      0.00      0.00      0.00     0.000      0.00    0.0    0.0
  LS3-5                    0.00           0      0.00      0.00      0.00     0.000      0.00    0.0    0.0
  LS30-1                   0.00           0      0.00      0.00      0.00     0.000      0.00    0.0    0.0
  LS32-1                  74.74           0      0.00     18.82     23.22     0.079      3.35    0.0    0.0
  LS33-1                  74.74           0      0.00     25.59     34.57     0.106      3.77    0.0    0.0
  LS34A-1                  1.04           6      0.00   1534.87   2918.01     0.091     22.31    0.0    0.0
  LS35-1                   0.00           0      0.00      0.00      0.00     0.000      0.00    0.0    0.0
  LS36-1                  74.74           0      0.00    122.68    165.00     0.511     84.50    0.0    0.0
  LS8-1                   74.74           0      0.00     35.63     48.05     0.148     18.76    0.0    0.0
  LS9-1                    0.00           0      0.00      0.00      0.00     0.000      0.00    0.0    0.0
  

  Analysis begun on:  Fri Nov 29 13:10:23 2019
  Analysis ended on:  Fri Nov 29 13:18:11 2019
  Total elapsed time: 00:07:48