
  EPA STORM WATER MANAGEMENT MODEL - VERSION 5.1 (Build 5.1.013)
  --------------------------------------------------------------

  WARNING 04: minimum elevation drop used for Conduit 100001
  WARNING 04: minimum elevation drop used for Conduit 160
  WARNING 02: maximum depth increased for Node 487
  
  *********************************************************
  NOTE: The summary statistics displayed in this report are
  based on results found at every computational time step,  
  not just on results from each reporting time step.
  *********************************************************
  
  ****************
  Analysis Options
  ****************
  Flow Units ............... GPM
  Process Models:
    Rainfall/Runoff ........ NO
    RDII ................... NO
    Snowmelt ............... NO
    Groundwater ............ NO
    Flow Routing ........... YES
    Ponding Allowed ........ NO
    Water Quality .......... NO
  Flow Routing Method ...... DYNWAVE
  Surcharge Method ......... EXTRAN
  Starting Date ............ 01/01/2002 00:00:00
  Ending Date .............. 01/01/2002 06:00:00
  Antecedent Dry Days ...... 5.0
  Report Time Step ......... 00:05:00
  Routing Time Step ........ 30.00 sec
  Variable Time Step ....... YES
  Maximum Trials ........... 8
  Number of Threads ........ 1
  Head Tolerance ........... 0.005000 ft
  
  
  **************************        Volume        Volume
  Flow Routing Continuity        acre-feet      10^6 gal
  **************************     ---------     ---------
  Dry Weather Inflow .......         0.530         0.173
  Wet Weather Inflow .......         0.000         0.000
  Groundwater Inflow .......         0.000         0.000
  RDII Inflow ..............         0.000         0.000
  External Inflow ..........         0.000         0.000
  External Outflow .........         0.371         0.121
  Flooding Loss ............         0.024         0.008
  Evaporation Loss .........         0.000         0.000
  Exfiltration Loss ........         0.000         0.000
  Initial Stored Volume ....         0.029         0.009
  Final Stored Volume ......         0.148         0.048
  Continuity Error (%) .....         2.895
  
  
  *************************
  Highest Continuity Errors
  *************************
  Node 9000 (-51.68%)
  Node 548 (31.11%)
  Node 759 (26.37%)
  Node 552 (-26.16%)
  Node 527 (11.83%)
  
  
  ***************************
  Time-Step Critical Elements
  ***************************
  Link 243 (73.16%)
  Link 15 (8.88%)
  Link 100001 (5.00%)
  Link 100023 (4.28%)
  Link 289 (3.29%)
  
  
  ********************************
  Highest Flow Instability Indexes
  ********************************
  Link 100001 (41)
  Link 62 (31)
  Link 100023 (13)
  Link 100033 (13)
  Link 100025 (13)
  
  
  *************************
  Routing Time Step Summary
  *************************
  Minimum Time Step           :     0.48 sec
  Average Time Step           :    14.21 sec
  Maximum Time Step           :    25.12 sec
  Percent in Steady State     :     0.00
  Average Iterations per Step :     3.31
  Percent Not Converging      :     9.80
  
  
  ******************
  Node Depth Summary
  ******************
  
  ---------------------------------------------------------------------------------
                                 Average  Maximum  Maximum  Time of Max    Reported
                                   Depth    Depth      HGL   Occurrence   Max Depth
  Node                 Type         Feet     Feet     Feet  days hr:min        Feet
  ---------------------------------------------------------------------------------
  03CC-004             JUNCTION     0.13     0.17  1773.95     0  02:04        0.17
  03CC-006             JUNCTION     0.10     0.14  1769.66     0  02:00        0.14
  03CC-010             JUNCTION     0.15     0.23  1767.44     0  02:25        0.23
  03CC-011             JUNCTION     0.13     0.16  1772.56     0  02:05        0.16
  04DB-005             JUNCTION     0.13     0.19  1741.75     0  02:48        0.19
  04DB-013             JUNCTION     0.17     0.24  1747.14     0  02:46        0.24
  09AA-005             JUNCTION     0.00     0.00  1826.13     0  00:00        0.00
  10BA-004             JUNCTION     0.11     0.15  1781.89     0  02:01        0.15
  10BA-005             JUNCTION     0.13     0.18  1781.65     0  02:02        0.18
  10BA-007             JUNCTION     0.14     0.18  1781.33     0  02:02        0.18
  10BB-009             JUNCTION     0.12     0.15  1778.90     0  02:03        0.15
  10BB-012             JUNCTION     0.12     0.16  1776.29     0  02:03        0.16
  12                   JUNCTION     1.18    22.63  1755.23     0  02:45       20.91
  14                   JUNCTION     0.00     0.00  1745.62     0  00:00        0.00
  394                  JUNCTION     0.15     0.73  1705.01     0  02:44        0.69
  395                  JUNCTION     0.13     0.17  1764.40     0  06:00        0.17
  396                  JUNCTION     0.11     0.15  1764.48     0  06:00        0.15
  397                  JUNCTION     0.09     0.12  1769.23     0  06:00        0.12
  398                  JUNCTION     0.07     0.10  1769.90     0  06:00        0.10
  400                  JUNCTION     0.06     0.07  1842.99     0  05:11        0.07
  401                  JUNCTION     0.06     0.07  1845.14     0  05:07        0.07
  402                  JUNCTION     0.05     0.07  1852.72     0  05:08        0.07
  403                  JUNCTION     0.07     0.09  1770.04     0  06:00        0.09
  404                  JUNCTION     0.10     0.13  1764.70     0  06:00        0.13
  405                  JUNCTION     0.06     0.07  1712.04     0  01:05        0.07
  406                  JUNCTION     0.02     0.02  1751.61     0  00:03        0.02
  407                  JUNCTION     0.02     0.02  1750.24     0  01:00        0.02
  408                  JUNCTION     0.04     0.04  1745.06     0  01:00        0.04
  409                  JUNCTION     0.02     0.02  1742.05     0  01:00        0.02
  410                  JUNCTION     0.05     0.06  1710.86     0  01:08        0.06
  411                  JUNCTION     0.05     0.06  1713.79     0  01:02        0.06
  412                  JUNCTION     0.05     0.06  1822.83     0  05:49        0.06
  413                  JUNCTION     0.05     0.06  1824.07     0  00:08        0.06
  414                  JUNCTION     0.09     0.11  1826.81     0  05:49        0.11
  416                  JUNCTION     0.16     0.21  1761.56     0  01:13        0.21
  417                  JUNCTION     0.18     0.24  1758.32     0  01:14        0.24
  418                  JUNCTION     0.15     0.20  1772.78     0  01:11        0.20
  420                  JUNCTION     0.14     0.19  1766.34     0  01:12        0.18
  421                  JUNCTION     0.18     0.23  1755.53     0  01:16        0.23
  422                  JUNCTION     0.00     0.01  1724.31     0  04:08        0.01
  423                  JUNCTION     0.17     0.42  1721.65     0  03:01        0.41
  424                  JUNCTION     0.12     0.16  1756.10     0  01:15        0.16
  425                  JUNCTION     0.12     0.16  1761.51     0  06:00        0.16
  426                  JUNCTION     0.09     0.12  1771.15     0  06:00        0.12
  427                  JUNCTION     0.06     0.07  1791.14     0  06:00        0.07
  428                  JUNCTION     0.07     0.09  1777.48     0  06:00        0.09
  429                  JUNCTION     0.16     0.20  1777.60     0  06:00        0.20
  430                  JUNCTION     0.09     0.13  1751.84     0  06:00        0.13
  431                  JUNCTION     0.13     0.18  1751.12     0  06:00        0.18
  432                  JUNCTION     0.05     0.07  1709.87     0  01:11        0.07
  433                  JUNCTION     0.05     0.07  1708.69     0  01:12        0.07
  434                  JUNCTION     0.05     0.07  1708.32     0  01:14        0.07
  435                  JUNCTION     0.05     0.07  1707.52     0  01:15        0.07
  436                  JUNCTION     0.06     0.08  1705.36     0  01:18        0.08
  437                  JUNCTION     1.52     3.45  1705.02     0  02:44        3.41
  438                  JUNCTION     0.05     0.06  1814.27     0  06:00        0.06
  439                  JUNCTION     0.05     0.06  1813.82     0  06:00        0.06
  440                  JUNCTION     0.04     0.05  1813.47     0  06:00        0.05
  441                  JUNCTION     0.15     0.18  1809.23     0  01:04        0.18
  442                  JUNCTION     0.14     0.17  1802.87     0  01:05        0.17
  443                  JUNCTION     0.13     0.16  1799.35     0  01:06        0.16
  444                  JUNCTION     0.20     0.25  1785.36     0  01:07        0.25
  445                  JUNCTION     0.14     0.17  1782.32     0  01:10        0.17
  446                  JUNCTION     0.21     0.27  1784.40     0  01:09        0.27
  447                  JUNCTION     0.11     0.14  1844.77     0  00:46        0.14
  448                  JUNCTION     0.05     0.06  1842.90     0  05:11        0.06
  449                  JUNCTION     0.04     0.04  1837.62     0  06:00        0.04
  450                  JUNCTION     0.02     0.02  1826.29     0  06:00        0.02
  451                  JUNCTION     0.03     0.03  1828.18     0  06:00        0.03
  452                  JUNCTION     0.05     0.06  1830.48     0  05:59        0.06
  453                  JUNCTION     0.07     0.09  1816.93     0  06:00        0.09
  454                  JUNCTION     0.08     0.10  1813.87     0  06:00        0.10
  455                  JUNCTION     0.09     0.12  1812.61     0  06:00        0.12
  456                  JUNCTION     0.06     0.07  1812.27     0  06:00        0.07
  457                  JUNCTION     0.05     0.07  1804.37     0  06:00        0.07
  458                  JUNCTION     0.06     0.07  1800.27     0  06:00        0.07
  459                  JUNCTION     0.31     0.39  1756.33     0  01:08        0.39
  460                  JUNCTION     0.08     0.10  1775.04     0  01:08        0.10
  461                  JUNCTION     0.08     0.10  1771.13     0  01:09        0.10
  462                  JUNCTION     0.00     0.00  1822.68     0  00:00        0.00
  463                  JUNCTION     0.17     0.24  1756.11     0  02:37        0.24
  466                  JUNCTION     0.04     0.08  1765.69     0  02:36        0.08
  467                  JUNCTION     0.15     0.23  1765.40     0  02:34        0.23
  468                  JUNCTION     0.14     0.21  1765.57     0  02:32        0.21
  469                  JUNCTION     0.18     0.29  1760.11     0  02:36        0.29
  470                  JUNCTION     0.05     0.06  1814.81     0  06:00        0.06
  471                  JUNCTION     0.03     0.03  1817.29     0  06:00        0.03
  472                  JUNCTION     0.04     0.05  1816.21     0  06:00        0.05
  473                  JUNCTION     0.05     0.06  1819.78     0  06:00        0.06
  474                  JUNCTION     0.03     0.04  1820.67     0  05:55        0.04
  475                  JUNCTION     0.05     0.06  1820.94     0  05:33        0.06
  476                  JUNCTION     0.03     0.04  1818.84     0  06:00        0.04
  478                  JUNCTION     0.18     0.25  1749.24     0  02:44        0.25
  479                  JUNCTION     0.13     0.19  1749.62     0  02:43        0.19
  480                  JUNCTION     0.25     0.37  1740.37     0  02:49        0.37
  481                  JUNCTION     0.23     0.33  1767.10     0  02:30        0.33
  482                  JUNCTION     0.06     0.15  1767.10     0  02:28        0.15
  483                  JUNCTION     0.23     0.31  1767.20     0  02:27        0.31
  484                  JUNCTION     0.01     0.09  1768.09     0  02:29        0.09
  485                  JUNCTION     0.08     0.10  1772.71     0  01:00        0.10
  486                  JUNCTION     0.02     0.02  1731.91     0  01:02        0.02
  487                  JUNCTION     0.24     0.56  1727.02     0  02:55        0.56
  488                  JUNCTION     0.03     0.03  1726.59     0  01:17        0.03
  489                  JUNCTION     0.05     0.06  1726.57     0  01:51        0.06
  491                  JUNCTION     0.01     0.02  1727.40     0  00:58        0.02
  492                  JUNCTION     0.06     0.07  1729.39     0  00:58        0.07
  493                  JUNCTION     0.02     0.02  1729.18     0  01:12        0.02
  494                  JUNCTION     0.24     0.59  1726.75     0  02:55        0.59
  495                  JUNCTION     0.02     0.03  1726.47     0  02:00        0.03
  496                  JUNCTION     0.07     0.08  1857.32     0  05:03        0.08
  497                  JUNCTION     0.14     0.18  1814.86     0  01:03        0.18
  498                  JUNCTION     0.05     0.07  1809.26     0  06:00        0.07
  499                  JUNCTION     0.07     0.10  1809.50     0  06:00        0.10
  500                  JUNCTION     0.14     0.18  1821.79     0  01:02        0.18
  501                  JUNCTION     0.09     0.12  1852.33     0  01:01        0.12
  502                  JUNCTION     0.16     0.20  1829.84     0  01:01        0.20
  503                  JUNCTION     0.12     0.16  1831.99     0  01:06        0.16
  504                  JUNCTION     0.07     0.09  1839.69     0  01:01        0.09
  505                  JUNCTION     0.11     0.14  1857.69     0  01:00        0.14
  506                  JUNCTION     0.06     0.07  1813.73     0  06:00        0.07
  507                  JUNCTION     0.04     0.06  1814.77     0  06:00        0.06
  508                  JUNCTION     0.05     0.07  1904.55     0  00:37        0.07
  509                  JUNCTION     0.08     0.10  1951.81     0  01:00        0.10
  510                  JUNCTION     0.07     0.09  1904.41     0  01:00        0.09
  511                  JUNCTION     0.09     0.12  1930.09     0  01:00        0.12
  512                  JUNCTION     0.15     0.20  1913.31     0  01:00        0.20
  513                  JUNCTION     0.11     0.15  1913.70     0  01:00        0.15
  514                  JUNCTION     0.05     0.07  1918.08     0  00:07        0.07
  515                  JUNCTION     0.08     0.10  1946.11     0  01:00        0.10
  516                  JUNCTION     0.08     0.10  1957.84     0  01:00        0.10
  517                  JUNCTION     0.08     0.10  1927.06     0  01:00        0.10
  518                  JUNCTION     0.08     0.10  1925.16     0  01:00        0.10
  519                  JUNCTION     0.07     0.09  1915.79     0  01:00        0.09
  520                  JUNCTION     0.08     0.11  1935.90     0  01:00        0.11
  521                  JUNCTION     0.05     0.06  1973.55     0  00:20        0.06
  522                  JUNCTION     0.06     0.07  1962.08     0  00:23        0.07
  523                  JUNCTION     0.05     0.06  1963.16     0  00:22        0.06
  524                  JUNCTION     0.07     0.08  1951.36     0  01:00        0.08
  526                  JUNCTION     0.09     0.11  1900.33     0  01:00        0.11
  527                  JUNCTION     4.95     5.68  1938.45     0  01:09        5.65
  528                  JUNCTION     0.01     0.02  1913.61     0  00:47        0.02
  529                  JUNCTION     0.01     0.02  1908.23     0  00:18        0.02
  530                  JUNCTION     0.08     0.10  1981.21     0  01:00        0.10
  531                  JUNCTION     0.08     0.10  1967.99     0  01:00        0.10
  532                  JUNCTION     0.08     0.10  1954.92     0  01:00        0.10
  533                  JUNCTION     0.08     0.10  1928.55     0  01:00        0.10
  534                  JUNCTION     0.08     0.10  1927.98     0  01:00        0.10
  535                  JUNCTION     0.08     0.10  1941.45     0  01:00        0.10
  536                  JUNCTION     0.09     0.11  1916.50     0  01:00        0.11
  537                  JUNCTION     0.07     0.09  1869.02     0  00:04        0.09
  538                  JUNCTION     0.08     0.10  1857.91     0  00:14        0.10
  539                  JUNCTION     0.07     0.09  1845.31     0  00:26        0.09
  540                  JUNCTION     0.07     0.09  1852.92     0  00:17        0.09
  541                  JUNCTION     0.09     0.11  2057.84     0  01:00        0.11
  542                  JUNCTION     0.03     0.04  1819.45     0  06:00        0.04
  545                  JUNCTION     0.05     0.06  1809.62     0  06:00        0.06
  547                  JUNCTION     0.29     0.71  1725.27     0  02:59        0.71
  548                  JUNCTION     0.10     0.15  1724.71     0  03:40        0.15
  549                  JUNCTION     0.23     0.56  1726.18     0  02:57        0.54
  550                  JUNCTION     0.03     0.03  1725.34     0  01:38        0.03
  551                  JUNCTION     0.00     0.01  1724.44     0  03:46        0.01
  552                  JUNCTION     0.40    13.56  1746.16     0  02:49       13.55
  553                  JUNCTION     0.00     0.00  1826.67     0  00:00        0.00
  554                  JUNCTION     0.17     0.26  1769.26     0  02:24        0.26
  555                  JUNCTION     0.10     0.12  1948.16     0  00:50        0.12
  556                  JUNCTION     0.09     0.11  1964.72     0  00:35        0.11
  557                  JUNCTION     0.07     0.08  1975.42     0  01:00        0.08
  558                  JUNCTION     0.04     0.05  1977.42     0  01:00        0.05
  559                  JUNCTION     0.04     0.05  1883.98     0  01:00        0.05
  560                  JUNCTION     0.00     0.00  1882.22     0  00:00        0.00
  561                  JUNCTION     0.03     0.04  1893.70     0  00:07        0.04
  562                  JUNCTION     0.03     0.03  1870.51     0  00:11        0.03
  563                  JUNCTION     0.07     0.09  1859.41     0  01:03        0.09
  564                  JUNCTION     0.09     0.11  1838.41     0  01:04        0.11
  565                  JUNCTION     0.09     0.11  1835.00     0  01:05        0.11
  566                  JUNCTION     0.10     0.13  1830.06     0  01:06        0.13
  567                  JUNCTION     0.06     0.07  1828.89     0  01:06        0.07
  568                  JUNCTION     0.00     0.00  1824.45     0  00:00        0.00
  569                  JUNCTION     0.00     0.00  1825.43     0  00:00        0.00
  570                  JUNCTION     0.02     0.03  1871.11     0  01:00        0.03
  571                  JUNCTION     0.00     0.00  1828.06     0  00:00        0.00
  572                  JUNCTION     0.00     0.00  1827.88     0  00:00        0.00
  573                  JUNCTION     0.06     0.08  1812.71     0  01:07        0.08
  574                  JUNCTION     0.10     0.13  1926.86     0  00:55        0.13
  575                  JUNCTION     0.10     0.12  1883.92     0  01:00        0.12
  576                  JUNCTION     0.10     0.12  1885.12     0  00:59        0.12
  577                  JUNCTION     0.10     0.12  1901.83     0  00:58        0.12
  578                  JUNCTION     0.10     0.13  1910.67     0  00:57        0.13
  579                  JUNCTION     0.10     0.13  1915.10     0  01:01        0.13
  580                  JUNCTION     0.03     0.04  1949.76     0  00:08        0.04
  581                  JUNCTION     0.19     0.24  1867.99     0  00:53        0.24
  582                  JUNCTION     0.18     0.23  1866.91     0  01:00        0.23
  583                  JUNCTION     0.06     0.07  1917.81     0  00:36        0.07
  584                  JUNCTION     0.06     0.08  1921.52     0  00:29        0.08
  585                  JUNCTION     0.04     0.05  1922.56     0  00:23        0.05
  586                  JUNCTION     0.05     0.06  1932.33     0  00:21        0.06
  587                  JUNCTION     0.02     0.03  1945.76     0  00:14        0.03
  588                  JUNCTION     0.02     0.03  1937.86     0  00:20        0.03
  589                  JUNCTION     0.20     0.26  1862.81     0  01:00        0.26
  590                  JUNCTION     0.16     0.21  1861.77     0  01:01        0.21
  591                  JUNCTION     0.17     0.22  1860.70     0  01:02        0.22
  592                  JUNCTION     0.15     0.19  1859.65     0  01:00        0.19
  593                  JUNCTION     0.18     0.23  1863.85     0  01:00        0.23
  594                  JUNCTION     0.04     0.05  1882.60     0  00:33        0.05
  595                  JUNCTION     0.04     0.05  1886.21     0  00:05        0.05
  596                  JUNCTION     0.08     0.10  1877.80     0  00:41        0.10
  597                  JUNCTION     0.12     0.14  1853.84     0  00:42        0.14
  598                  JUNCTION     0.10     0.12  1873.82     0  00:42        0.12
  599                  JUNCTION     0.05     0.07  1895.58     0  00:38        0.07
  6                    JUNCTION     0.05     0.52  1731.52     0  04:01        0.51
  600                  JUNCTION     0.05     0.05  1879.92     0  01:00        0.05
  601                  JUNCTION     0.05     0.06  1873.30     0  00:51        0.06
  602                  JUNCTION     0.09     0.11  1867.47     0  01:02        0.11
  603                  JUNCTION     0.05     0.06  1876.68     0  00:34        0.06
  604                  JUNCTION     0.04     0.05  1897.29     0  00:04        0.05
  605                  JUNCTION     0.18     0.23  1865.89     0  01:00        0.23
  606                  JUNCTION     0.18     0.24  1864.92     0  00:42        0.23
  607                  JUNCTION     0.09     0.12  1877.71     0  01:03        0.12
  608                  JUNCTION     0.09     0.11  1894.53     0  01:02        0.11
  609                  JUNCTION     0.11     0.14  1865.30     0  01:00        0.14
  610                  JUNCTION     0.10     0.13  1875.19     0  01:00        0.13
  611                  JUNCTION     0.14     0.18  1894.73     0  01:01        0.18
  612                  JUNCTION     0.06     0.07  1895.04     0  01:00        0.07
  613                  JUNCTION     0.04     0.06  1898.75     0  01:00        0.06
  614                  JUNCTION     0.15     0.20  1846.65     0  01:00        0.20
  615                  JUNCTION     0.11     0.14  1856.26     0  01:00        0.14
  616                  JUNCTION     0.08     0.10  1846.03     0  01:00        0.10
  617                  JUNCTION     0.11     0.15  1848.39     0  01:01        0.15
  618                  JUNCTION     0.05     0.07  1825.19     0  01:01        0.07
  619                  JUNCTION     0.06     0.08  1782.03     0  01:02        0.08
  620                  JUNCTION     0.13     0.17  1784.53     0  02:01        0.17
  621                  JUNCTION     0.13     0.17  1788.00     0  01:59        0.17
  622                  JUNCTION     0.14     0.19  1790.52     0  01:58        0.19
  623                  JUNCTION     0.08     0.10  1872.85     0  01:03        0.10
  624                  JUNCTION     0.08     0.10  1871.91     0  01:04        0.10
  626                  JUNCTION     0.07     0.09  1891.51     0  01:00        0.09
  627                  JUNCTION     0.03     0.03  1892.63     0  01:00        0.03
  628                  JUNCTION     0.04     0.04  1893.02     0  00:53        0.04
  629                  JUNCTION     0.05     0.06  1889.94     0  00:15        0.06
  630                  JUNCTION     0.04     0.04  1886.64     0  00:22        0.04
  631                  JUNCTION     0.08     0.10  1885.80     0  01:01        0.10
  632                  JUNCTION     0.08     0.10  1889.23     0  01:00        0.10
  633                  JUNCTION     0.00     0.00  1891.31     0  00:00        0.00
  634                  JUNCTION     0.07     0.09  1776.37     0  01:04        0.09
  635                  JUNCTION     0.12     0.18  1808.83     0  01:33        0.18
  636                  JUNCTION     0.12     0.18  1807.12     0  01:37        0.18
  637                  JUNCTION     0.12     0.18  1803.31     0  01:43        0.18
  638                  JUNCTION     0.08     0.10  1895.62     0  01:00        0.10
  639                  JUNCTION     0.12     0.16  1879.46     0  01:00        0.16
  640                  JUNCTION     0.09     0.12  1878.10     0  01:00        0.12
  641                  JUNCTION     0.13     0.19  1801.69     0  01:45        0.19
  642                  JUNCTION     0.10     0.15  1800.44     0  01:47        0.15
  643                  JUNCTION     0.12     0.19  1798.84     0  01:48        0.19
  644                  JUNCTION     0.08     0.10  1824.29     0  00:50        0.10
  645                  JUNCTION     0.09     0.12  1820.75     0  01:01        0.12
  646                  JUNCTION     0.06     0.07  1818.79     0  01:03        0.07
  647                  JUNCTION     0.06     0.07  1893.25     0  01:00        0.07
  648                  JUNCTION     0.02     0.02  1894.61     0  01:00        0.02
  649                  JUNCTION     0.07     0.09  1866.64     0  01:01        0.09
  650                  JUNCTION     0.06     0.07  1883.02     0  01:00        0.07
  651                  JUNCTION     0.12     0.17  1812.05     0  01:31        0.17
  652                  JUNCTION     0.36     0.46  1814.70     0  01:21        0.46
  653                  JUNCTION     0.13     0.18  1814.40     0  01:27        0.18
  654                  JUNCTION     0.30     0.39  1814.62     0  01:25        0.39
  655                  JUNCTION     0.12     0.15  1907.45     0  01:00        0.15
  656                  JUNCTION     0.08     0.10  1828.20     0  00:42        0.10
  657                  JUNCTION     0.07     0.09  1833.29     0  00:39        0.09
  658                  JUNCTION     0.09     0.11  1956.69     0  00:47        0.11
  659                  JUNCTION     0.10     0.13  1940.40     0  00:53        0.13
  660                  JUNCTION     0.05     0.06  1944.31     0  00:04        0.06
  661                  JUNCTION     0.05     0.06  1966.75     0  00:10        0.06
  662                  JUNCTION     0.05     0.07  1978.77     0  00:04        0.07
  663                  JUNCTION     0.05     0.06  1997.13     0  00:01        0.06
  664                  JUNCTION     0.16     0.22  1953.13     0  01:00        0.22
  665                  JUNCTION     0.08     0.11  1967.24     0  01:00        0.11
  666                  JUNCTION     0.08     0.10  1983.53     0  01:00        0.10
  667                  JUNCTION     0.10     0.14  1990.14     0  01:00        0.14
  668                  JUNCTION     0.13     0.17  1992.17     0  01:00        0.17
  669                  JUNCTION     0.09     0.12  1913.02     0  01:01        0.12
  670                  JUNCTION     0.04     0.05  1841.26     0  01:03        0.05
  671                  JUNCTION     0.11     0.14  1843.49     0  01:03        0.14
  672                  JUNCTION     0.10     0.12  1846.10     0  01:02        0.12
  673                  JUNCTION     0.07     0.09  1856.08     0  01:01        0.09
  674                  JUNCTION     0.02     0.03  1739.05     0  00:45        0.03
  675                  JUNCTION     0.08     0.10  2061.35     0  01:00        0.10
  676                  JUNCTION     0.07     0.09  2065.90     0  01:00        0.09
  677                  JUNCTION     0.05     0.07  2072.28     0  01:00        0.07
  678                  JUNCTION     0.05     0.06  2078.53     0  01:00        0.06
  679                  JUNCTION     0.08     0.10  2052.81     0  01:00        0.10
  680                  JUNCTION     0.05     0.07  2132.59     0  00:15        0.07
  681                  JUNCTION     0.03     0.04  1990.67     0  00:12        0.04
  682                  JUNCTION     0.07     0.09  2043.34     0  01:00        0.09
  683                  JUNCTION     0.07     0.10  2046.99     0  01:00        0.10
  684                  JUNCTION     0.01     0.01  2030.03     0  00:20        0.01
  685                  JUNCTION     0.05     0.06  1983.42     0  00:15        0.06
  686                  JUNCTION     0.04     0.05  2029.53     0  00:01        0.05
  687                  JUNCTION     0.04     0.05  2027.44     0  00:05        0.05
  688                  JUNCTION     0.04     0.05  1994.63     0  00:14        0.05
  689                  JUNCTION     0.04     0.05  2015.57     0  00:08        0.05
  690                  JUNCTION     0.04     0.05  2004.24     0  00:10        0.05
  691                  JUNCTION     0.04     0.05  2100.52     0  01:00        0.05
  692                  JUNCTION     0.05     0.06  2094.71     0  01:00        0.06
  693                  JUNCTION     0.06     0.07  2061.49     0  01:00        0.07
  694                  JUNCTION     0.07     0.08  2083.42     0  01:00        0.08
  695                  JUNCTION     0.06     0.07  2079.26     0  01:00        0.07
  696                  JUNCTION     0.06     0.08  2043.20     0  01:01        0.08
  697                  JUNCTION     0.09     0.10  1988.28     0  01:00        0.10
  698                  JUNCTION     0.08     0.10  1989.78     0  01:00        0.10
  699                  JUNCTION     0.06     0.07  2027.08     0  01:00        0.07
  700                  JUNCTION     0.09     0.12  2004.54     0  01:01        0.12
  701                  JUNCTION     0.06     0.08  1998.56     0  01:00        0.08
  702                  JUNCTION     0.06     0.08  2003.34     0  01:00        0.08
  703                  JUNCTION     0.05     0.06  2141.25     0  00:06        0.06
  704                  JUNCTION     0.03     0.03  2111.47     0  00:51        0.03
  705                  JUNCTION     0.06     0.07  2124.08     0  01:00        0.07
  706                  JUNCTION     0.05     0.06  2111.06     0  01:00        0.06
  709                  JUNCTION     0.08     0.10  1831.72     0  05:48        0.10
  710                  JUNCTION     0.04     0.05  1720.00     0  01:00        0.05
  711                  JUNCTION     0.13     0.17  1761.14     0  06:00        0.17
  712                  JUNCTION     0.10     0.14  1760.62     0  06:00        0.14
  713                  JUNCTION     0.07     0.09  1772.91     0  06:00        0.09
  714                  JUNCTION     0.07     0.09  1774.88     0  06:00        0.09
  715                  JUNCTION     0.08     0.11  1748.29     0  06:00        0.11
  716                  JUNCTION     0.10     0.14  1745.66     0  06:00        0.14
  717                  JUNCTION     0.08     0.41  1705.00     0  05:56        0.38
  718                  JUNCTION     0.04     0.05  1877.07     0  00:36        0.05
  719                  JUNCTION     0.15     0.20  1758.75     0  06:00        0.20
  720                  JUNCTION     0.09     0.13  1758.42     0  06:00        0.13
  721                  JUNCTION     0.52     0.90  1705.18     0  03:06        0.89
  722                  JUNCTION     0.15     0.37  1706.84     0  03:05        0.37
  723                  JUNCTION     0.00     0.00  1707.58     0  00:00        0.00
  724                  JUNCTION     0.00     0.00  1705.37     0  00:00        0.00
  725                  JUNCTION     0.15     0.36  1711.77     0  03:04        0.36
  726                  JUNCTION     0.00     0.00  1711.73     0  00:00        0.00
  727                  JUNCTION     0.00     0.00  1714.41     0  00:00        0.00
  728                  JUNCTION     0.18     0.44  1713.80     0  03:03        0.43
  729                  JUNCTION     0.11     0.26  1716.77     0  03:02        0.25
  730                  JUNCTION     0.15     0.37  1719.58     0  03:01        0.36
  731                  JUNCTION     0.03     0.04  1725.08     0  02:17        0.04
  732                  JUNCTION     0.25     0.60  1725.86     0  02:58        0.58
  733                  JUNCTION     0.00     0.01  1724.65     0  03:43        0.01
  734                  JUNCTION     0.15     0.36  1722.89     0  03:00        0.36
  735                  JUNCTION     0.15     0.19  1751.65     0  01:19        0.19
  736                  JUNCTION     0.05     0.06  1750.01     0  06:00        0.06
  737                  JUNCTION     3.08    15.00  1715.00     0  00:00        4.98
  738                  JUNCTION     0.14     0.17  1805.12     0  01:04        0.17
  739                  JUNCTION     0.10     0.18  1767.02     0  02:34        0.18
  740                  JUNCTION     0.04     0.05  1706.90     0  01:16        0.05
  741                  JUNCTION     0.07     0.09  1774.24     0  01:06        0.09
  742                  JUNCTION     0.10     0.13  1995.13     0  01:00        0.13
  743                  JUNCTION     0.08     0.10  1905.13     0  01:02        0.10
  744                  JUNCTION     0.03     0.04  1968.72     0  01:00        0.04
  745                  JUNCTION     0.19     0.25  1794.73     0  01:51        0.25
  746                  JUNCTION     0.25     0.32  1791.20     0  01:56        0.32
  747                  JUNCTION     0.15     0.19  1793.34     0  01:53        0.19
  748                  JUNCTION     0.08     0.12  1797.71     0  01:49        0.12
  749                  JUNCTION     0.14     0.20  1804.05     0  01:40        0.20
  750                  JUNCTION     0.05     0.07  1865.08     0  01:00        0.07
  751                  JUNCTION     0.09     0.11  2002.56     0  01:00        0.11
  752                  JUNCTION     0.09     0.11  2009.74     0  01:00        0.11
  753                  JUNCTION     0.07     0.09  2028.66     0  01:00        0.09
  754                  JUNCTION     0.07     0.09  2026.51     0  01:00        0.09
  755                  JUNCTION     0.03     0.04  2012.39     0  00:06        0.04
  756                  JUNCTION     0.02     0.02  1911.69     0  00:11        0.02
  757                  JUNCTION     0.00     0.00  1932.77     0  00:00        0.00
  758                  JUNCTION     3.98     4.60  1938.39     0  01:09        4.60
  759                  JUNCTION     1.69     2.07  1938.42     0  02:38        2.06
  760                  JUNCTION     0.05     0.06  1938.51     0  00:16        0.06
  761                  JUNCTION     0.05     0.06  1941.02     0  00:33        0.06
  762                  JUNCTION     0.06     0.07  1941.92     0  00:26        0.07
  763                  JUNCTION     0.05     0.06  1943.92     0  00:03        0.06
  764                  JUNCTION     0.08     0.10  1972.16     0  01:00        0.10
  765                  JUNCTION     0.06     0.07  2010.16     0  01:00        0.07
  766                  JUNCTION     0.17     0.22  1745.36     0  01:19        0.22
  767                  JUNCTION     0.18     0.23  1785.23     0  01:07        0.23
  768                  JUNCTION     0.17     0.22  1761.39     0  06:00        0.22
  769                  JUNCTION     0.12     0.34  1729.34     0  02:52        0.34
  770                  JUNCTION     0.07     0.09  1777.85     0  06:00        0.09
  772                  JUNCTION     0.09     0.11  1919.07     0  00:34        0.11
  773                  JUNCTION     0.02     0.02  1736.33     0  01:00        0.02
  775                  JUNCTION     0.10     0.13  2007.43     0  01:00        0.13
  776                  JUNCTION     0.06     0.09  1894.63     0  01:04        0.09
  782                  JUNCTION     0.04     0.06  1850.66     0  05:46        0.06
  784                  JUNCTION     0.04     0.06  1852.49     0  06:00        0.06
  786                  JUNCTION     0.04     0.05  1861.89     0  06:00        0.05
  788                  JUNCTION     0.02     0.02  1874.09     0  05:53        0.02
  790                  JUNCTION     0.02     0.02  1885.34     0  00:02        0.02
  793                  JUNCTION     0.23     0.34  1754.27     0  02:38        0.34
  795                  JUNCTION     0.18     0.26  1753.98     0  02:39        0.26
  797                  JUNCTION     0.21     0.31  1753.29     0  02:40        0.31
  799                  JUNCTION     0.21     0.31  1752.69     0  02:40        0.31
  8                    JUNCTION     0.09     0.11  1881.12     0  01:02        0.11
  801                  JUNCTION     0.21     0.31  1752.22     0  02:41        0.31
  803                  JUNCTION     0.21     0.31  1751.77     0  02:42        0.31
  808                  JUNCTION     0.03     0.04  1720.68     0  06:00        0.04
  810                  JUNCTION     0.02     0.03  1734.23     0  06:00        0.03
  812                  JUNCTION     0.02     0.03  1750.21     0  06:00        0.03
  814                  JUNCTION     0.02     0.03  1764.59     0  06:00        0.03
  816                  JUNCTION     0.03     0.05  1766.31     0  06:00        0.05
  818                  JUNCTION     0.01     0.03  1769.04     0  06:00        0.03
  820                  JUNCTION     0.10     0.13  1774.83     0  06:00        0.13
  822                  JUNCTION     0.13     0.17  1775.73     0  06:00        0.17
  824                  JUNCTION     0.08     0.10  1777.25     0  05:55        0.10
  826                  JUNCTION     0.05     0.06  1783.94     0  05:50        0.06
  828                  JUNCTION     0.07     0.09  1787.84     0  05:52        0.09
  830                  JUNCTION     0.05     0.07  1799.04     0  05:50        0.07
  832                  JUNCTION     0.07     0.08  1802.16     0  05:51        0.08
  836                  JUNCTION     0.01     0.07  1746.40     0  02:51        0.07
  841                  JUNCTION     0.00     0.00  1740.00     0  00:00        0.00
  846                  JUNCTION     0.20     0.31  1739.33     0  02:52        0.30
  848                  JUNCTION     0.17     0.27  1729.43     0  02:57        0.27
  850                  JUNCTION     0.17     0.26  1732.15     0  02:55        0.26
  852                  JUNCTION     0.16     0.24  1736.55     0  02:54        0.24
  1000                 OUTFALL      0.12     0.34  1728.84     0  02:52        0.34
  9000                 STORAGE      3.21     5.00  1726.25     0  02:49        4.98
  9002                 STORAGE      3.10    10.00  1710.00     0  00:00        4.98
  
  
  *******************
  Node Inflow Summary
  *******************
  
  -------------------------------------------------------------------------------------------------
                                  Maximum  Maximum                  Lateral       Total        Flow
                                  Lateral    Total  Time of Max      Inflow      Inflow     Balance
                                   Inflow   Inflow   Occurrence      Volume      Volume       Error
  Node                 Type           GPM      GPM  days hr:min    10^6 gal    10^6 gal     Percent
  -------------------------------------------------------------------------------------------------
  03CC-004             JUNCTION      0.00   155.56     0  02:04           0      0.0366       0.286
  03CC-006             JUNCTION      0.00   155.51     0  02:05           0      0.0363      -9.139
  03CC-010             JUNCTION      0.00   302.67     0  02:24           0      0.0468       0.267
  03CC-011             JUNCTION      0.00   155.54     0  02:04           0      0.0365       0.382
  04DB-005             JUNCTION      0.00   314.23     0  02:46           0      0.0605       0.234
  04DB-013             JUNCTION      0.00   337.50     0  02:44           0      0.0615       0.869
  09AA-005             JUNCTION      0.00     0.00     0  00:00           0           0       0.000 gal
  10BA-004             JUNCTION      0.00   113.40     0  02:01           0      0.0254       0.331
  10BA-005             JUNCTION      0.00   113.41     0  02:02           0      0.0253       0.366
  10BA-007             JUNCTION      0.00   155.66     0  02:01           0       0.037       0.507
  10BB-009             JUNCTION      0.00   155.59     0  02:02           0      0.0368       0.271
  10BB-012             JUNCTION      0.00   155.57     0  02:03           0      0.0367       0.274
  12                   JUNCTION      0.00  6836.11     0  00:00           0      0.0579       2.007
  14                   JUNCTION      0.00     0.00     0  00:00           0           0       0.000 gal
  394                  JUNCTION      0.00   731.04     0  03:06           0      0.0586       0.497
  395                  JUNCTION      0.00    80.87     0  06:00           0      0.0178       1.435
  396                  JUNCTION      0.00    47.57     0  06:00           0      0.0107       0.298
  397                  JUNCTION      0.00    47.57     0  06:00           0      0.0108       0.717
  398                  JUNCTION      0.41    47.57     0  06:00    9.87e-05      0.0109       0.170
  400                  JUNCTION      0.00    25.79     0  05:08           0     0.00615       0.755
  401                  JUNCTION      2.07    25.72     0  05:08    0.000504     0.00618       0.469
  402                  JUNCTION      0.00    23.80     0  05:04           0     0.00572       0.800
  403                  JUNCTION      1.15    33.31     0  06:00    0.000279     0.00722       1.000
  404                  JUNCTION      0.00    47.57     0  06:00           0      0.0108       0.724
  405                  JUNCTION      0.00     9.73     0  01:02           0     0.00212       2.578
  406                  JUNCTION      1.50     1.50     0  00:00    0.000395    0.000395       0.448
  407                  JUNCTION      0.00     1.57     0  00:04           0    0.000393       1.307
  408                  JUNCTION      2.81     4.32     0  01:00     0.00074     0.00113       0.922
  409                  JUNCTION      0.00     4.32     0  01:00           0     0.00112       0.296
  410                  JUNCTION      0.00     9.64     0  01:06           0     0.00207       1.703
  411                  JUNCTION      0.00     9.81     0  01:01           0     0.00216       1.965
  412                  JUNCTION      0.00    49.37     0  05:51           0      0.0117       0.432
  413                  JUNCTION      5.35     5.35     0  05:00      0.0013      0.0013       1.012
  414                  JUNCTION      1.93    44.01     0  05:47    0.000469      0.0105       0.773
  416                  JUNCTION      0.00   216.66     0  01:12           0      0.0498       0.415
  417                  JUNCTION      0.00   216.47     0  01:13           0      0.0496       0.489
  418                  JUNCTION      0.00   217.19     0  01:10           0      0.0503       0.590
  420                  JUNCTION      0.00   216.89     0  01:11           0        0.05       0.474
  421                  JUNCTION      0.25   216.35     0  01:15    6.08e-05      0.0493       0.580
  422                  JUNCTION      0.00     0.26     0  03:47           0    4.83e-05       6.935
  423                  JUNCTION      0.00   771.31     0  03:00           0      0.0609       0.452
  424                  JUNCTION      0.00   216.21     0  01:14           0      0.0494       0.241
  425                  JUNCTION      1.86    82.73     0  06:00    0.000452       0.018       0.872
  426                  JUNCTION      0.00    32.16     0  06:00           0     0.00701       1.019
  427                  JUNCTION      2.55    32.16     0  06:00    0.000619      0.0073       0.838
  428                  JUNCTION      0.00    32.16     0  06:00           0     0.00711       0.397
  429                  JUNCTION      0.00    32.16     0  06:00           0     0.00718       0.956
  430                  JUNCTION      0.00    83.77     0  06:00           0      0.0177       0.514
  431                  JUNCTION      2.78    86.54     0  06:00    0.000676      0.0183       0.811
  432                  JUNCTION      0.00     9.60     0  01:08           0     0.00203       1.878
  433                  JUNCTION      2.66    11.76     0  01:11      0.0007     0.00269       1.019
  434                  JUNCTION      0.00    11.74     0  01:13           0     0.00267       0.675
  435                  JUNCTION      0.00    11.74     0  01:14           0     0.00265       0.700
  436                  JUNCTION      0.00    11.73     0  01:16           0     0.00262       1.169
  437                  JUNCTION      0.00 11258.42     0  00:00           0      0.0879       8.407
  438                  JUNCTION      0.00     4.47     0  06:00           0     0.00102       3.339
  439                  JUNCTION      0.00     4.45     0  06:00           0    0.000984       2.957
  440                  JUNCTION      0.00     5.72     0  06:00           0     0.00128       1.646
  441                  JUNCTION      0.00   217.99     0  01:03           0      0.0516       0.556
  442                  JUNCTION      0.00   218.10     0  01:05           0      0.0515       0.200
  443                  JUNCTION      0.00   218.09     0  01:05           0      0.0514       0.340
  444                  JUNCTION      0.00   217.95     0  01:06           0      0.0512       0.575
  445                  JUNCTION      0.00   217.43     0  01:09           0      0.0506       0.454
  446                  JUNCTION      0.00   217.74     0  01:08           0      0.0508       0.519
  447                  JUNCTION      1.12    98.63     0  00:43    0.000285      0.0246       0.561
  448                  JUNCTION      2.90    22.72     0  05:46    0.000706     0.00544       0.704
  449                  JUNCTION      8.16     8.16     0  05:00     0.00212     0.00212       1.408
  450                  JUNCTION      0.81     2.07     0  06:00    0.000212    0.000526       1.051
  451                  JUNCTION      1.25     1.25     0  05:00    0.000326    0.000326       3.613
  452                  JUNCTION      0.15    22.87     0  05:15    3.56e-05     0.00544       0.933
  453                  JUNCTION      1.02    23.88     0  05:48    0.000247     0.00564       1.508
  454                  JUNCTION      0.78    24.66     0  06:00    0.000189     0.00574       1.678
  455                  JUNCTION      0.00    24.66     0  06:00           0     0.00565       1.280
  456                  JUNCTION      4.96    29.61     0  06:00     0.00121     0.00678       0.399
  457                  JUNCTION      0.00    29.61     0  06:00           0     0.00676       0.500
  458                  JUNCTION      0.00    29.61     0  06:00           0     0.00672       0.627
  459                  JUNCTION      3.32    64.45     0  01:09    0.000873      0.0153       3.123
  460                  JUNCTION      0.00    60.12     0  01:07           0       0.014       0.371
  461                  JUNCTION      1.96    61.72     0  01:08    0.000516      0.0144       0.346
  462                  JUNCTION      0.00     0.00     0  00:00           0           0       0.000 gal
  463                  JUNCTION      0.00   334.54     0  02:36           0      0.0611       0.699
  466                  JUNCTION      0.00    43.45     0  02:33           0     0.00393       0.838
  467                  JUNCTION      0.00   290.23     0  02:33           0      0.0468       0.427
  468                  JUNCTION      0.00   250.03     0  02:31           0      0.0432       0.723
  469                  JUNCTION      0.00   289.72     0  02:34           0      0.0466       0.704
  470                  JUNCTION      0.00     4.48     0  06:00           0     0.00105       2.099
  471                  JUNCTION      0.00     2.81     0  06:00           0    0.000651       2.282
  472                  JUNCTION      1.67     4.48     0  06:00    0.000435     0.00107       1.583
  473                  JUNCTION      1.02     2.59     0  05:55    0.000265    0.000635       3.450
  474                  JUNCTION      0.00     1.57     0  05:44           0    0.000386       4.289
  475                  JUNCTION      1.57     1.57     0  05:00    0.000408    0.000408       5.723
  476                  JUNCTION      0.22     2.81     0  06:00    5.76e-05    0.000664       2.070
  478                  JUNCTION      1.91   338.31     0  02:43    0.000502      0.0618       0.529
  479                  JUNCTION      5.44   337.27     0  02:42     0.00143      0.0615       0.332
  480                  JUNCTION      0.00   330.83     0  02:48           0      0.0608       0.595
  481                  JUNCTION      0.00   256.54     0  02:27           0      0.0437       1.211
  482                  JUNCTION      0.00    45.68     0  02:27           0      0.0031       0.465
  483                  JUNCTION      0.00   304.52     0  02:26           0       0.047       0.385
  484                  JUNCTION      0.00    31.22     0  02:24           0    0.000353       1.826
  485                  JUNCTION      9.80    39.01     0  01:00     0.00257     0.00893       0.967
  486                  JUNCTION      0.00     1.26     0  01:00           0    0.000314       2.086
  487                  JUNCTION      0.00   858.04     0  02:49           0      0.0631       0.733
  488                  JUNCTION      0.48     1.65     0  01:00    0.000125    0.000424       1.938
  489                  JUNCTION      0.00     1.62     0  01:18           0    0.000416       9.714
  491                  JUNCTION      0.00     7.25     0  01:00           0     0.00189       0.695
  492                  JUNCTION      7.25     7.25     0  00:00     0.00191     0.00191       0.953
  493                  JUNCTION      0.00     1.26     0  01:04           0    0.000307       2.735
  494                  JUNCTION      0.00   818.44     0  02:55           0      0.0626       0.641
  495                  JUNCTION      0.00     1.50     0  01:53           0    0.000379       2.033
  496                  JUNCTION     23.63    23.63     0  05:00     0.00575     0.00575       0.533
  497                  JUNCTION      0.00   215.52     0  01:02           0      0.0506       0.502
  498                  JUNCTION      0.00     6.01     0  06:00           0     0.00128       2.386
  499                  JUNCTION      0.36     6.05     0  06:00    9.35e-05     0.00132       3.275
  500                  JUNCTION      0.19   214.20     0  01:01    4.96e-05      0.0504       0.634
  501                  JUNCTION      0.00   110.29     0  01:00           0      0.0243       0.231
  502                  JUNCTION      0.00   208.27     0  01:00           0      0.0486       0.668
  503                  JUNCTION      0.00   110.26     0  01:02           0      0.0242       0.351
  504                  JUNCTION      0.00   110.26     0  01:01           0      0.0242       0.194
  505                  JUNCTION      0.00   110.35     0  01:00           0      0.0243       0.285
  506                  JUNCTION      1.30     5.73     0  06:00    0.000339      0.0013       1.029
  507                  JUNCTION      0.00     4.47     0  06:00           0     0.00103       1.544
  508                  JUNCTION      4.67    26.94     0  00:36     0.00119     0.00671       0.362
  509                  JUNCTION      0.44    81.81     0  01:00    0.000101      0.0177       0.348
  510                  JUNCTION      0.00    18.08     0  00:08           0     0.00404       1.487
  511                  JUNCTION      4.54    86.35     0  01:00     0.00105      0.0187       0.466
  512                  JUNCTION      0.00    86.31     0  01:00           0      0.0185       0.165
  513                  JUNCTION      0.00    86.33     0  01:00           0      0.0186       0.478
  514                  JUNCTION     17.70    17.70     0  00:00     0.00407     0.00407       0.806
  515                  JUNCTION      0.00    44.86     0  01:00           0      0.0102       0.588
  516                  JUNCTION     38.26    44.86     0  01:00      0.0088      0.0103       0.452
  517                  JUNCTION      0.00    44.86     0  01:00           0      0.0101       0.403
  518                  JUNCTION      2.03    46.89     0  01:00    0.000466      0.0105       0.307
  519                  JUNCTION      2.40    49.29     0  01:00    0.000552      0.0111       0.454
  520                  JUNCTION      0.00    44.86     0  01:00           0      0.0102       0.626
  521                  JUNCTION      0.00    18.04     0  00:16           0     0.00441       0.649
  522                  JUNCTION      9.52    27.47     0  00:22      0.0024     0.00676       0.289
  523                  JUNCTION      0.00    17.96     0  00:20           0     0.00438       0.530
  524                  JUNCTION      0.00    27.47     0  00:23           0     0.00674       1.683
  526                  JUNCTION      2.82    51.49     0  01:00    0.000711      0.0118       0.446
  527                  JUNCTION      1.97    37.83     0  00:43    0.000498     0.00722      13.412
  528                  JUNCTION      1.30     1.30     0  00:00    0.000328    0.000328       0.698
  529                  JUNCTION      0.00     1.33     0  00:13           0    0.000324       1.162
  530                  JUNCTION      0.00    43.08     0  01:00           0      0.0103       0.473
  531                  JUNCTION      0.00    44.46     0  01:00           0      0.0106       0.392
  532                  JUNCTION      0.00    44.46     0  01:00           0      0.0106       0.620
  533                  JUNCTION      1.03    45.48     0  01:00    0.000259      0.0107       0.406
  534                  JUNCTION      3.35    48.83     0  01:00    0.000845      0.0115       0.402
  535                  JUNCTION      0.00    44.46     0  01:00           0      0.0105       0.657
  536                  JUNCTION      0.00    48.82     0  01:00           0      0.0114       0.767
  537                  JUNCTION     31.05    31.05     0  00:00     0.00782     0.00782       0.499
  538                  JUNCTION      0.00    32.74     0  00:06           0     0.00779       1.401
  539                  JUNCTION      0.00    32.17     0  00:19           0      0.0076       1.688
  540                  JUNCTION      0.00    31.28     0  00:16           0     0.00768       1.058
  541                  JUNCTION      5.75    31.37     0  01:00     0.00132     0.00703       1.073
  542                  JUNCTION      0.00     2.59     0  06:00           0    0.000614       1.180
  545                  JUNCTION      0.00     5.71     0  06:00           0     0.00126       2.465
  547                  JUNCTION      0.00   807.79     0  02:58           0       0.061       0.044
  548                  JUNCTION      0.00     1.48     0  02:17           0    0.000349      45.165
  549                  JUNCTION      0.00   822.80     0  02:56           0      0.0622       0.653
  550                  JUNCTION      0.00     1.49     0  02:00           0    0.000372       2.560
  551                  JUNCTION      0.00     0.26     0  03:43           0    4.91e-05       1.629
  552                  JUNCTION      0.00   524.32     0  02:50           0     0.00365     -20.734
  553                  JUNCTION      0.00     0.00     0  00:00           0           0       0.000 gal
  554                  JUNCTION      0.00   777.42     0  02:21           0      0.0488       3.563
  555                  JUNCTION     12.91    55.37     0  00:48      0.0032      0.0134       0.714
  556                  JUNCTION      7.14    32.34     0  01:00     0.00177     0.00794       1.935
  557                  JUNCTION     21.33    25.20     0  01:00     0.00528     0.00623       0.971
  558                  JUNCTION      3.88     3.88     0  00:00     0.00096     0.00096       1.430
  559                  JUNCTION      0.00     8.69     0  00:07           0     0.00217       1.416
  560                  JUNCTION      0.00     0.00     0  00:00           0           0       0.000 gal
  561                  JUNCTION      7.57     7.57     0  00:00     0.00199     0.00199       0.724
  562                  JUNCTION      1.06     2.46     0  01:00     0.00027    0.000623       0.768
  563                  JUNCTION      0.58    59.45     0  01:02    0.000152       0.014       0.469
  564                  JUNCTION      0.00    59.40     0  01:04           0      0.0139       0.462
  565                  JUNCTION      0.00    59.36     0  01:05           0      0.0139       0.319
  566                  JUNCTION      0.99    60.16     0  01:05     0.00026      0.0141       0.305
  567                  JUNCTION      0.00    60.14     0  01:06           0       0.014       0.156
  568                  JUNCTION      0.00     0.00     0  00:00           0           0       0.000 gal
  569                  JUNCTION      0.00     0.00     0  00:00           0           0       0.000 gal
  570                  JUNCTION      1.40     1.40     0  00:00    0.000358    0.000358       1.335
  571                  JUNCTION      0.00     0.00     0  00:00           0           0       0.000 gal
  572                  JUNCTION      0.00     0.00     0  00:00           0           0       0.000 gal
  573                  JUNCTION      0.00    60.14     0  01:06           0       0.014       0.322
  574                  JUNCTION      0.00    85.02     0  00:53           0      0.0203       0.565
  575                  JUNCTION      0.00    90.78     0  00:59           0      0.0213       0.379
  576                  JUNCTION      0.39    90.78     0  00:58      0.0001      0.0214       0.364
  577                  JUNCTION      0.58    90.39     0  00:57    0.000147      0.0214       0.440
  578                  JUNCTION      4.79    89.81     0  00:56     0.00119      0.0213       0.261
  579                  JUNCTION      0.00    85.02     0  00:55           0      0.0202       0.407
  580                  JUNCTION      2.98     2.98     0  00:00     0.00076     0.00076       0.805
  581                  JUNCTION      0.00    93.24     0  01:00           0      0.0219       1.707
  582                  JUNCTION      4.70    97.96     0  00:57      0.0012      0.0227       1.102
  583                  JUNCTION      0.00    22.27     0  00:34           0     0.00555       0.560
  584                  JUNCTION      0.00    13.09     0  00:23           0     0.00328       1.050
  585                  JUNCTION      0.00    13.09     0  00:22           0      0.0033       0.473
  586                  JUNCTION     10.09    13.09     0  00:20     0.00258     0.00331       0.519
  587                  JUNCTION      0.00     3.04     0  00:10           0    0.000754       1.180
  588                  JUNCTION      0.00     3.04     0  00:15           0    0.000745       1.018
  589                  JUNCTION      4.87   107.91     0  01:00     0.00124      0.0242       1.316
  590                  JUNCTION      0.00   107.69     0  01:00           0      0.0239       0.801
  591                  JUNCTION      0.00   107.56     0  01:01           0      0.0237       0.677
  592                  JUNCTION      3.41   110.62     0  01:00     0.00087      0.0245       0.497
  593                  JUNCTION      0.00   103.23     0  01:00           0      0.0233       1.263
  594                  JUNCTION      0.00     6.96     0  00:07           0      0.0017       1.527
  595                  JUNCTION      6.68     6.68     0  00:00      0.0017      0.0017       0.509
  596                  JUNCTION      5.83    32.77     0  00:38     0.00149     0.00815       0.600
  597                  JUNCTION      2.01    97.51     0  00:42    0.000512      0.0245       0.523
  598                  JUNCTION     49.93    95.50     0  00:41      0.0127      0.0241       0.375
  599                  JUNCTION      0.00    26.94     0  00:37           0     0.00668       0.382
  6                    JUNCTION      0.00  2592.28     0  04:00           0      0.0568       8.188
  600                  JUNCTION      0.00     8.31     0  01:00           0     0.00214       1.155
  601                  JUNCTION      0.00    19.42     0  00:38           0     0.00499       1.296
  602                  JUNCTION      0.14    59.10     0  01:01    3.76e-05      0.0139       0.654
  603                  JUNCTION      3.54    11.85     0  01:00    0.000929     0.00305       1.112
  604                  JUNCTION      8.31     8.31     0  00:00     0.00218     0.00218       0.478
  605                  JUNCTION      0.00    97.94     0  01:00           0      0.0225       1.298
  606                  JUNCTION      5.43   103.31     0  01:00     0.00139      0.0236       1.151
  607                  JUNCTION      0.00    80.72     0  01:02           0      0.0176       0.437
  608                  JUNCTION      0.00    80.74     0  01:02           0      0.0176       0.293
  609                  JUNCTION      0.00    82.12     0  01:00           0      0.0178       0.526
  610                  JUNCTION      1.67    82.20     0  01:00    0.000383      0.0179       0.304
  611                  JUNCTION      0.00   103.98     0  01:01           0      0.0223       0.734
  612                  JUNCTION      0.00    17.70     0  01:00           0     0.00395       0.279
  613                  JUNCTION      0.00    17.70     0  01:00           0     0.00398       0.662
  614                  JUNCTION      1.85    84.93     0  01:00    0.000426      0.0184       0.320
  615                  JUNCTION      1.57    83.52     0  01:00     0.00036      0.0181       0.468
  616                  JUNCTION      0.00    84.70     0  01:00           0      0.0183       0.166
  617                  JUNCTION      0.00    83.32     0  01:00           0       0.018       0.395
  618                  JUNCTION      0.00    84.67     0  01:00           0      0.0183       0.238
  619                  JUNCTION      0.00    84.63     0  01:01           0      0.0182       0.243
  620                  JUNCTION      0.00   113.45     0  01:59           0      0.0255       0.626
  621                  JUNCTION      0.00   113.47     0  01:58           0      0.0256       0.475
  622                  JUNCTION      0.00   113.50     0  01:57           0      0.0258       0.640
  623                  JUNCTION      0.70    40.05     0  01:02    0.000197     0.00908       0.659
  624                  JUNCTION      0.00    39.99     0  01:03           0     0.00902       0.471
  626                  JUNCTION      5.43    31.94     0  01:00     0.00151     0.00695       0.746
  627                  JUNCTION      3.40     3.40     0  00:00    0.000948    0.000948       1.018
  628                  JUNCTION      3.44     3.44     0  00:00    0.000959    0.000959       0.768
  629                  JUNCTION      4.51     7.95     0  00:50     0.00126     0.00221       1.174
  630                  JUNCTION      0.00     7.96     0  00:17           0     0.00218       0.866
  631                  JUNCTION      0.00    39.74     0  01:00           0     0.00903       0.626
  632                  JUNCTION      0.00    31.85     0  01:00           0      0.0069       0.465
  633                  JUNCTION      0.00     0.00     0  00:00           0           0       0.000 gal
  634                  JUNCTION      0.00    29.86     0  01:02           0     0.00641       0.499
  635                  JUNCTION      0.00    77.33     0  01:31           0       0.017       1.353
  636                  JUNCTION      0.00    77.29     0  01:34           0      0.0168       1.402
  637                  JUNCTION      0.00    76.86     0  01:41           0      0.0163       0.935
  638                  JUNCTION      0.00    49.29     0  01:00           0       0.011       0.578
  639                  JUNCTION      0.00    49.29     0  01:00           0      0.0109       0.841
  640                  JUNCTION      0.85    50.14     0  01:00    0.000196       0.011       0.515
  641                  JUNCTION      0.00    76.76     0  01:43           0      0.0161       1.127
  642                  JUNCTION      0.00    76.65     0  01:45           0       0.016       0.630
  643                  JUNCTION      0.00    76.61     0  01:47           0      0.0159       0.677
  644                  JUNCTION      0.00    31.57     0  00:42           0     0.00739       1.384
  645                  JUNCTION      0.00    31.53     0  00:50           0     0.00729       1.640
  646                  JUNCTION      0.00    31.50     0  01:01           0     0.00717       0.566
  647                  JUNCTION      0.00    52.73     0  01:00           0      0.0121       0.283
  648                  JUNCTION      0.00     1.32     0  00:19           0     0.00032       1.489
  649                  JUNCTION      0.00    52.70     0  01:00           0       0.012       0.254
  650                  JUNCTION      0.00    52.70     0  01:00           0      0.0121       0.196
  651                  JUNCTION      0.00    77.62     0  01:28           0      0.0173       1.458
  652                  JUNCTION      0.00    84.09     0  01:03           0       0.019       4.811
  653                  JUNCTION      0.00    77.67     0  01:25           0      0.0175       1.166
  654                  JUNCTION      0.00    78.66     0  01:19           0      0.0181       3.630
  655                  JUNCTION      0.00    48.81     0  01:00           0      0.0114       1.430
  656                  JUNCTION      0.00    31.58     0  00:40           0     0.00747       1.129
  657                  JUNCTION      0.45    31.83     0  00:30    0.000113     0.00758       1.540
  658                  JUNCTION     10.12    42.47     0  00:39     0.00251      0.0103       1.300
  659                  JUNCTION      1.18    85.02     0  00:50    0.000291      0.0205       0.978
  660                  JUNCTION      8.48     8.48     0  00:00      0.0021      0.0021       0.487
  661                  JUNCTION      1.16    20.37     0  00:05    0.000286     0.00492       0.613
  662                  JUNCTION      0.00    20.03     0  00:02           0     0.00466       0.467
  663                  JUNCTION     18.84    18.84     0  00:00     0.00466     0.00466       0.165
  664                  JUNCTION      0.00    81.39     0  01:00           0      0.0177       0.904
  665                  JUNCTION      3.49    81.40     0  01:00    0.000804      0.0178       0.366
  666                  JUNCTION      0.00    77.90     0  01:00           0      0.0171       0.415
  667                  JUNCTION      0.00    77.90     0  01:00           0      0.0171       0.378
  668                  JUNCTION      5.28    77.90     0  01:00     0.00121      0.0172       0.337
  669                  JUNCTION      0.00    86.30     0  01:00           0      0.0185       0.445
  670                  JUNCTION      0.00    52.60     0  01:03           0      0.0119       0.173
  671                  JUNCTION      0.00    52.63     0  01:02           0      0.0119       0.421
  672                  JUNCTION      0.00    52.67     0  01:01           0       0.012       0.418
  673                  JUNCTION      0.00    52.68     0  01:01           0       0.012       0.263
  674                  JUNCTION      1.27     1.27     0  00:00    0.000333    0.000333       3.451
  675                  JUNCTION      2.67    25.62     0  01:00    0.000614     0.00577       1.014
  676                  JUNCTION      6.72    22.95     0  01:00     0.00155      0.0052       0.761
  677                  JUNCTION      0.00    16.23     0  01:00           0     0.00367       0.592
  678                  JUNCTION      6.89    16.23     0  01:00     0.00159      0.0037       0.822
  679                  JUNCTION      3.47    34.84     0  01:00    0.000798     0.00776       0.801
  680                  JUNCTION      3.86    16.83     0  00:08    0.000973     0.00413       1.317
  681                  JUNCTION      0.00     6.79     0  00:08           0     0.00151       0.973
  682                  JUNCTION      0.00    35.61     0  01:00           0     0.00784       0.785
  683                  JUNCTION      0.77    35.61     0  01:00    0.000178     0.00787       0.397
  684                  JUNCTION      0.67     0.67     0  00:00    0.000169    0.000169       0.542
  685                  JUNCTION      3.11    17.98     0  00:14    0.000783     0.00443       0.537
  686                  JUNCTION     13.58    13.58     0  00:00     0.00342     0.00342       0.116
  687                  JUNCTION      0.00    14.97     0  00:02           0     0.00359       0.516
  688                  JUNCTION      0.00    14.96     0  00:11           0     0.00367       0.554
  689                  JUNCTION      0.57    15.00     0  00:06    0.000143     0.00371       0.559
  690                  JUNCTION      0.00    14.96     0  00:08           0     0.00369       0.577
  691                  JUNCTION      4.65     9.34     0  00:42     0.00107     0.00214       1.221
  692                  JUNCTION      5.59    26.79     0  01:00     0.00141     0.00656       0.339
  693                  JUNCTION      0.00    28.85     0  01:00           0     0.00702       0.564
  694                  JUNCTION      2.07    28.85     0  01:00    0.000521     0.00706       0.278
  695                  JUNCTION      0.00    28.85     0  01:00           0     0.00704       0.353
  696                  JUNCTION      0.00    28.85     0  01:00           0     0.00698       0.679
  697                  JUNCTION      8.61    43.08     0  01:00     0.00217      0.0104       0.333
  698                  JUNCTION      0.05    34.48     0  01:00    1.35e-05     0.00823       0.349
  699                  JUNCTION      1.01    29.86     0  01:00    0.000254     0.00719       0.468
  700                  JUNCTION      0.00    29.86     0  01:00           0     0.00713       0.408
  701                  JUNCTION      0.00    34.42     0  01:00           0     0.00823       0.234
  702                  JUNCTION      4.56    34.42     0  01:00     0.00115     0.00825       0.191
  703                  JUNCTION     12.63    12.63     0  00:00     0.00318     0.00318       0.694
  704                  JUNCTION      4.69     4.69     0  00:00     0.00108     0.00108       0.579
  705                  JUNCTION      4.70    21.46     0  00:17     0.00119     0.00527       1.891
  706                  JUNCTION      0.00    21.20     0  01:00           0     0.00517       0.286
  709                  JUNCTION     16.39    42.11     0  05:11     0.00399      0.0101       0.898
  710                  JUNCTION      0.00     9.85     0  01:00           0     0.00218       1.020
  711                  JUNCTION      0.00    82.73     0  06:00           0      0.0178       0.329
  712                  JUNCTION      0.00    82.73     0  06:00           0      0.0177       0.316
  713                  JUNCTION      0.00    32.16     0  06:00           0     0.00705       0.509
  714                  JUNCTION      0.00    32.16     0  06:00           0     0.00708       0.533
  715                  JUNCTION      0.00    86.54     0  06:00           0      0.0182       0.652
  716                  JUNCTION      0.00    98.69     0  06:00           0       0.021       0.344
  717                  JUNCTION      0.00   228.46     0  00:00           0     0.00437       5.419
  718                  JUNCTION      6.13    12.81     0  00:33     0.00157     0.00324       0.556
  719                  JUNCTION      1.04    83.77     0  06:00    0.000253      0.0179       0.447
  720                  JUNCTION      0.00    83.77     0  06:00           0      0.0178       0.445
  721                  JUNCTION      0.00   731.05     0  03:05           0      0.0591       0.819
  722                  JUNCTION      0.00   753.59     0  03:04           0      0.0596       0.822
  723                  JUNCTION      0.00     0.00     0  00:00           0           0       0.000 gal
  724                  JUNCTION      0.00     0.00     0  00:00           0           0       0.000 gal
  725                  JUNCTION      0.00   762.26     0  03:03           0        0.06       0.673
  726                  JUNCTION      0.00     0.00     0  00:00           0           0       0.000 gal
  727                  JUNCTION      0.00     0.00     0  00:00           0           0       0.000 gal
  728                  JUNCTION      0.00   765.59     0  03:02           0      0.0603       0.580
  729                  JUNCTION      0.00   765.99     0  03:01           0      0.0604       0.229
  730                  JUNCTION      0.00   770.32     0  03:01           0      0.0607       0.429
  731                  JUNCTION      0.00     1.49     0  01:43           0    0.000362       3.884
  732                  JUNCTION      0.00   816.56     0  02:57           0      0.0618       1.360
  733                  JUNCTION      0.00     1.24     0  03:41           0     0.00024       1.519
  734                  JUNCTION      0.00   773.97     0  02:59           0      0.0612       0.356
  735                  JUNCTION      0.00   216.36     0  01:16           0       0.049       0.940
  736                  JUNCTION     12.15    12.15     0  05:00     0.00296     0.00296       1.721
  737                  JUNCTION      0.00 48486.05     0  00:00           0       0.107       3.966
  738                  JUNCTION      0.98   218.10     0  01:04    0.000255      0.0516       0.119
  739                  JUNCTION      3.52    47.61     0  02:28    0.000926     0.00401       1.887
  740                  JUNCTION      0.00    11.73     0  01:15           0     0.00263       0.443
  741                  JUNCTION      0.00    29.85     0  01:04           0     0.00638       0.431
  742                  JUNCTION      0.00    72.63     0  01:00           0      0.0161       0.432
  743                  JUNCTION      0.00    48.75     0  01:01           0      0.0112       0.751
  744                  JUNCTION      0.00     6.85     0  00:14           0     0.00149       1.282
  745                  JUNCTION      0.00   113.91     0  01:49           0      0.0266       1.195
  746                  JUNCTION      0.00   113.67     0  01:54           0      0.0261       1.302
  747                  JUNCTION      0.00   113.74     0  01:52           0      0.0263       0.739
  748                  JUNCTION      0.00    76.57     0  01:48           0      0.0158       0.403
  749                  JUNCTION      0.00    77.02     0  01:37           0      0.0166       1.638
  750                  JUNCTION      0.00    50.14     0  01:00           0       0.011       0.321
  751                  JUNCTION      0.00    72.63     0  01:00           0      0.0161       0.392
  752                  JUNCTION     16.20    72.63     0  01:00     0.00373      0.0162       0.362
  753                  JUNCTION     20.82    56.43     0  01:00     0.00479      0.0126       0.087
  754                  JUNCTION      0.00    56.43     0  01:00           0      0.0126       0.426
  755                  JUNCTION      6.60     6.60     0  00:00     0.00152     0.00152       0.620
  756                  JUNCTION      0.00     1.30     0  00:47           0    0.000326       0.746
  757                  JUNCTION      0.00     0.00     0  00:00           0           0       0.000 gal
  758                  JUNCTION      0.00    56.85     0  01:09           0      0.0082       7.659
  759                  JUNCTION      0.00    52.68     0  00:45           0      0.0025      35.820
  760                  JUNCTION      0.00     8.34     0  00:33           0     0.00206       0.825
  761                  JUNCTION      0.00     8.34     0  00:28           0     0.00207       0.775
  762                  JUNCTION      0.00     8.81     0  00:04           0      0.0021       1.053
  763                  JUNCTION      8.34     8.34     0  00:00      0.0021      0.0021       0.329
  764                  JUNCTION      1.38    44.46     0  01:00    0.000347      0.0106       0.299
  765                  JUNCTION      0.00    29.86     0  01:00           0     0.00715       0.321
  766                  JUNCTION      0.00   302.96     0  01:18           0      0.0695       0.330
  767                  JUNCTION      0.00   217.77     0  01:07           0      0.0509       0.215
  768                  JUNCTION      0.00    82.73     0  06:00           0      0.0178       0.482
  769                  JUNCTION      0.00  2628.39     0  02:52           0       0.122       0.543
  770                  JUNCTION      0.00    32.16     0  06:00           0     0.00724       0.820
  772                  JUNCTION      9.20    22.27     0  00:29     0.00235      0.0056       0.889
  773                  JUNCTION      0.00     1.27     0  00:55           0    0.000322       2.616
  775                  JUNCTION      0.00    72.63     0  01:00           0      0.0162       0.340
  776                  JUNCTION      0.00    23.18     0  01:02           0     0.00453       0.788
  782                  JUNCTION      0.00    19.82     0  05:45           0     0.00476       0.491
  784                  JUNCTION      0.00    19.82     0  05:44           0     0.00478       0.483
  786                  JUNCTION     16.63    19.82     0  05:45     0.00405     0.00481       0.543
  788                  JUNCTION      0.00     3.23     0  05:04           0    0.000772       1.291
  790                  JUNCTION      3.18     3.18     0  05:00    0.000775    0.000775       0.374
  793                  JUNCTION      0.00   333.21     0  02:38           0      0.0607       0.391
  795                  JUNCTION      0.00   332.90     0  02:38           0      0.0604       0.250
  797                  JUNCTION      0.00   332.77     0  02:39           0      0.0603       0.341
  799                  JUNCTION      2.81   334.40     0  02:40    0.000738      0.0608       0.320
  8                    JUNCTION      0.00    39.66     0  01:01           0     0.00897       1.053
  801                  JUNCTION      0.00   334.21     0  02:41           0      0.0606       0.292
  803                  JUNCTION      0.00   334.31     0  02:41           0      0.0604       0.548
  808                  JUNCTION      0.00     6.36     0  06:00           0     0.00108       1.202
  810                  JUNCTION      0.00     6.36     0  06:00           0     0.00109       1.083
  812                  JUNCTION      0.00     6.36     0  06:00           0     0.00111       1.747
  814                  JUNCTION      0.00     6.36     0  06:00           0     0.00113       1.291
  816                  JUNCTION      4.16     6.36     0  06:00     0.00101     0.00115       2.001
  818                  JUNCTION      0.00     2.20     0  06:00           0    0.000152       9.905
  820                  JUNCTION      0.00    49.37     0  06:00           0      0.0112       2.846
  822                  JUNCTION      0.00    49.37     0  05:47           0      0.0114       1.791
  824                  JUNCTION      0.00    49.37     0  05:50           0      0.0115       0.522
  826                  JUNCTION      0.00    49.37     0  05:56           0      0.0115       0.280
  828                  JUNCTION      0.00    49.37     0  05:44           0      0.0116       0.374
  830                  JUNCTION      0.00    49.37     0  05:49           0      0.0116       0.294
[...]
  298                     1.00   0.00  0.00  0.00  0.01  0.99  0.00  0.00  1.00  0.00
  299                     2.49   0.00  0.00  0.00  0.00  1.00  0.00  0.00  0.03  0.00
  30                      1.00   0.01  0.00  0.00  0.99  0.00  0.00  0.00  0.91  0.00
  300                     1.00   0.00  1.00  0.00  0.00  0.00  0.00  0.00  0.00  0.00
  301                     1.00   0.01  0.00  0.00  0.00  0.00  0.00  0.99  0.00  0.00
  302                     1.00   0.00  0.00  0.00  0.01  0.99  0.00  0.00  0.00  0.00
  303                     1.00   0.00  0.00  0.00  0.00  0.99  0.00  0.00  0.04  0.00
  304                     1.00   0.00  0.00  0.00  0.01  0.99  0.00  0.00  0.02  0.00
  305                     1.00   0.00  0.00  0.00  0.32  0.68  0.00  0.00  1.00  0.00
  306                     1.00   0.00  0.00  0.00  0.01  0.99  0.00  0.00  0.98  0.00
  307                     1.00   0.00  0.00  0.00  0.03  0.97  0.00  0.00  1.00  0.00
  308                     1.00   0.00  0.00  0.00  0.00  1.00  0.00  0.00  0.98  0.00
  309                     1.00   0.00  0.00  0.00  0.01  0.99  0.00  0.00  1.00  0.00
  31                      1.05   0.02  0.00  0.00  0.02  0.96  0.00  0.00  0.00  0.00
  310                     1.00   0.09  0.00  0.00  0.86  0.06  0.00  0.00  0.00  0.00
  311                     1.00   0.05  0.00  0.00  0.95  0.00  0.00  0.00  0.00  0.00
  312                     1.00   0.04  0.00  0.00  0.96  0.00  0.00  0.00  0.00  0.00
  313                     1.00   0.04  0.01  0.00  0.96  0.00  0.00  0.00  0.96  0.00
  314                     1.00   0.00  0.00  0.00  0.01  0.99  0.00  0.00  0.93  0.00
  315                     1.00   0.01  0.00  0.00  0.03  0.96  0.00  0.00  0.90  0.00
  316                     1.00   0.02  0.00  0.00  0.93  0.05  0.00  0.00  0.90  0.00
  317                     1.00   0.03  0.00  0.00  0.04  0.93  0.00  0.00  0.00  0.00
  318                     2.28   0.00  0.00  0.00  0.01  0.99  0.00  0.00  0.99  0.00
  319                     1.26   0.01  0.00  0.00  0.01  0.98  0.00  0.00  0.99  0.00
  32                      1.00   0.01  0.02  0.00  0.97  0.00  0.00  0.00  0.23  0.00
  320                     1.00   0.02  0.00  0.00  0.00  0.98  0.00  0.00  0.02  0.00
  321                     1.44   0.00  0.02  0.00  0.97  0.00  0.00  0.00  0.99  0.00
  322                     1.00   0.02  0.00  0.00  0.01  0.98  0.00  0.00  0.95  0.00
  323                     1.00   0.00  0.00  0.00  0.01  0.99  0.00  0.00  0.96  0.00
  324                     1.00   0.00  0.02  0.00  0.04  0.94  0.00  0.00  0.99  0.00
  325                     1.00   0.00  0.00  0.00  0.00  1.00  0.00  0.00  0.96  0.00
  326                     1.00   0.00  0.02  0.00  0.01  0.96  0.00  0.00  0.99  0.00
  327                     6.23   0.00  0.00  0.00  0.04  0.96  0.00  0.00  1.00  0.00
  328                     1.00   0.00  0.00  0.00  0.00  1.00  0.00  0.00  0.00  0.00
  329                     1.00   0.00  1.00  0.00  0.00  0.00  0.00  0.00  0.00  0.00
  33                      5.01   0.00  0.00  0.00  0.99  0.01  0.00  0.00  0.99  0.00
  330                     2.06   0.00  0.00  0.00  0.00  1.00  0.00  0.00  0.99  0.00
  331                     1.00   0.01  0.00  0.00  0.01  0.99  0.00  0.00  0.00  0.00
  332                     1.00   1.00  0.00  0.00  0.00  0.00  0.00  0.00  0.00  0.00
  333                     1.00   0.00  0.03  0.00  0.97  0.00  0.00  0.00  0.04  0.00
  334                     1.00   0.02  0.00  0.00  0.95  0.03  0.00  0.00  0.07  0.00
  335                     1.00   0.02  0.00  0.00  0.88  0.10  0.00  0.00  0.88  0.00
  336                     1.00   0.00  0.02  0.00  0.01  0.97  0.00  0.00  0.02  0.00
  337                     1.00   0.01  0.00  0.00  0.01  0.98  0.00  0.00  0.95  0.00
  338                     1.00   0.00  0.00  0.00  0.01  0.99  0.00  0.00  0.00  0.00
  339                     1.00   0.00  0.00  0.00  0.00  1.00  0.00  0.00  0.98  0.00
  34                      1.07   0.01  0.00  0.00  0.99  0.00  0.00  0.00  0.00  0.00
  341                     1.00   0.00  0.00  0.00  0.97  0.02  0.00  0.00  0.99  0.00
  342                     1.00   0.00  0.00  0.00  0.98  0.01  0.00  0.00  0.00  0.00
  343                     1.00   0.01  0.00  0.00  0.01  0.98  0.00  0.00  0.97  0.00
  344                     1.00   0.00  0.00  0.00  0.00  1.00  0.00  0.00  0.01  0.00
  345                     1.00   0.00  0.00  0.00  0.01  0.99  0.00  0.00  0.98  0.00
  346                     2.63   0.00  0.01  0.00  0.03  0.96  0.00  0.00  1.00  0.00
  347                     1.00   0.00  0.00  0.00  0.00  1.00  0.00  0.00  0.96  0.00
  348                     1.00   0.00  0.00  0.00  0.00  0.00  0.00  1.00  0.00  0.00
  349                     1.00   0.00  0.02  0.00  0.01  0.97  0.00  0.00  1.00  0.00
  35                      1.62   0.02  0.00  0.00  0.01  0.97  0.00  0.00  0.00  0.00
  350                     1.00   0.01  0.00  0.00  0.01  0.98  0.00  0.00  0.01  0.00
  351                     1.00   0.00  0.00  0.00  0.01  0.99  0.00  0.00  0.99  0.00
  352                     1.00   0.00  0.00  0.00  0.00  0.99  0.00  0.00  0.07  0.00
  353                     3.36   0.00  0.00  0.00  0.00  1.00  0.00  0.00  0.99  0.00
  354                     2.10   0.00  0.00  0.00  1.00  0.00  0.00  0.00  1.00  0.00
  355                     1.00   0.00  0.00  0.00  0.00  0.99  0.00  0.00  0.98  0.00
  356                     1.00   0.00  0.02  0.00  0.03  0.95  0.00  0.00  0.04  0.00
  357                     1.29   0.00  0.00  0.00  0.00  1.00  0.00  0.00  1.00  0.00
  358                     1.00   0.00  0.00  0.00  0.01  0.99  0.00  0.00  1.00  0.00
  359                     1.00   0.00  0.00  0.00  0.05  0.95  0.00  0.00  0.15  0.00
  36                      1.00   0.00  0.02  0.00  0.06  0.92  0.00  0.00  0.99  0.00
  360                     1.00   0.00  0.00  0.00  0.00  1.00  0.00  0.00  0.00  0.00
  361                     1.00   0.00  0.00  0.00  0.01  0.98  0.00  0.00  1.00  0.00
  362                     1.00   0.00  0.00  0.00  0.00  1.00  0.00  0.00  0.99  0.00
  363                     1.00   0.01  0.00  0.00  0.01  0.99  0.00  0.00  0.01  0.00
  364                     1.00   0.02  0.00  0.00  0.01  0.98  0.00  0.00  0.92  0.00
  365                     1.00   0.01  0.00  0.00  0.01  0.98  0.00  0.00  0.99  0.00
  366                     1.00   0.00  0.02  0.00  0.01  0.97  0.00  0.00  0.02  0.00
  367                     1.00   0.00  0.00  0.00  0.00  1.00  0.00  0.00  1.00  0.00
  368                     2.74   0.00  1.00  0.00  0.00  0.00  0.00  0.00  0.00  0.00
  369                     1.00   0.00  0.00  0.00  0.02  0.97  0.00  0.00  1.00  0.00
  37                      1.77   0.00  0.00  0.00  0.07  0.93  0.00  0.00  0.00  0.00
  370                     1.00   0.00  0.00  0.00  0.00  0.00  0.00  1.00  0.00  0.00
  371                     1.00   0.00  0.00  0.00  0.00  1.00  0.00  0.00  1.00  0.00
  372                     1.00   0.00  0.00  0.00  0.00  1.00  0.00  0.00  0.00  0.00
  373                     1.00   0.00  0.00  0.00  0.01  0.99  0.00  0.00  0.98  0.00
  374                     1.00   0.01  0.00  0.00  0.01  0.98  0.00  0.00  0.97  0.00
  375                     1.00   0.00  0.00  0.00  0.01  0.99  0.00  0.00  0.96  0.00
  376                     1.00   0.00  0.00  0.00  0.00  1.00  0.00  0.00  0.98  0.00
  377                     1.00   0.02  0.00  0.00  0.01  0.97  0.00  0.00  0.99  0.00
  378                     1.00   0.03  0.00  0.00  0.01  0.97  0.00  0.00  0.95  0.00
  379                     1.00   0.03  0.00  0.00  0.01  0.96  0.00  0.00  0.00  0.00
  38                      1.00   0.01  0.00  0.00  0.01  0.98  0.00  0.00  0.91  0.00
  380                     6.49   0.03  0.00  0.00  0.90  0.07  0.00  0.00  0.97  0.00
  382                     2.02   0.00  0.14  0.00  0.86  0.00  0.00  0.00  0.86  0.00
  383                     1.31   0.02  0.00  0.00  0.96  0.02  0.00  0.00  0.97  0.00
  384                     1.00   0.01  0.00  0.00  0.00  0.00  0.00  0.99  0.00  0.00
  385                     1.00   0.01  0.00  0.00  0.00  0.00  0.00  0.99  0.00  0.00
  386                     1.00   0.00  0.00  0.00  1.00  0.00  0.00  0.00  0.00  0.00
  387                     1.00   0.00  0.00  0.00  1.00  0.00  0.00  0.00  0.00  0.00
  388                     1.00   0.00  0.01  0.00  0.99  0.00  0.00  0.00  1.00  0.00
  389                     1.00   0.02  0.00  0.00  0.01  0.97  0.00  0.00  0.93  0.00
  39                      3.83   0.00  0.02  0.00  0.07  0.91  0.00  0.00  0.99  0.00
  390                     1.00   0.00  0.00  0.00  1.00  0.00  0.00  0.00  1.00  0.00
  391                     1.00   0.00  0.00  0.00  0.00  1.00  0.00  0.00  0.99  0.00
  392                     1.00   0.01  0.00  0.00  0.01  0.98  0.00  0.00  0.99  0.00
  393                     1.00   0.02  0.00  0.00  0.02  0.96  0.00  0.00  0.00  0.00
  40                      1.00   0.00  0.00  0.00  0.01  0.99  0.00  0.00  0.00  0.00
  41                      2.27   0.00  0.00  0.00  0.00  0.00  0.00  1.00  0.00  0.00
  42                      1.00   1.00  0.00  0.00  0.00  0.00  0.00  0.00  0.00  0.00
  43                      1.00   0.00  0.00  0.00  0.00  0.00  0.00  1.00  0.00  0.00
  44                      1.00   0.00  0.00  0.00  0.09  0.91  0.00  0.00  0.00  0.00
  45                     11.74   0.00  0.06  0.00  0.02  0.92  0.00  0.00  0.93  0.00
  46                      1.00   0.05  0.00  0.00  0.03  0.92  0.00  0.00  0.00  0.00
  47                      1.47   0.10  0.00  0.00  0.12  0.78  0.00  0.00  0.84  0.00
  48                      1.00   0.12  0.00  0.00  0.11  0.77  0.00  0.00  0.00  0.00
  49                      1.00   0.13  0.00  0.00  0.09  0.78  0.00  0.00  0.00  0.00
  5                       1.00   0.00  0.00  0.00  0.00  1.00  0.00  0.00  0.99  0.00
  50                      1.00   0.39  0.00  0.00  0.00  0.00  0.00  0.61  0.00  0.00
  51                      1.00   0.15  0.00  0.00  0.10  0.75  0.00  0.00  0.00  0.00
  52                      1.00   0.15  0.00  0.00  0.10  0.75  0.00  0.00  0.73  0.00
  53                      2.88   0.14  0.00  0.00  0.08  0.78  0.00  0.00  0.85  0.00
  54                      1.00   1.00  0.00  0.00  0.00  0.00  0.00  0.00  0.00  0.00
  55                      1.00   1.00  0.00  0.00  0.00  0.00  0.00  0.00  0.00  0.00
  56                      1.00   0.16  0.00  0.00  0.00  0.00  0.00  0.84  0.00  0.00
  57                      7.41   0.29  0.00  0.00  0.14  0.56  0.00  0.00  0.15  0.00
  58                      1.00   1.00  0.00  0.00  0.00  0.00  0.00  0.00  0.00  0.00
  59                      5.81   0.17  0.83  0.00  0.00  0.00  0.00  0.00  0.00  0.00
  6                       1.64   0.00  0.00  0.00  0.00  1.00  0.00  0.00  0.03  0.00
  60                      1.00   0.01  0.00  0.00  0.85  0.00  0.00  0.15  0.74  0.00
  61                      4.51   0.01  0.29  0.00  0.63  0.08  0.00  0.00  0.52  0.00
  62                     10.39   0.00  0.00  0.00  0.99  0.00  0.00  0.00  0.03  0.00
  64                      1.00   0.02  0.00  0.00  0.01  0.97  0.00  0.00  0.97  0.00
  65                      1.00   0.03  0.00  0.00  0.01  0.96  0.00  0.00  0.96  0.00
  66                      1.00   0.03  0.00  0.00  0.43  0.54  0.00  0.00  0.95  0.00
  67                      1.35   0.01  0.00  0.00  0.99  0.00  0.00  0.00  0.00  0.00
  68                      1.00   0.05  0.00  0.00  0.02  0.93  0.00  0.00  0.91  0.00
  69                      1.00   0.04  0.00  0.00  0.02  0.94  0.00  0.00  0.93  0.00
  7                       1.00   0.00  0.00  0.00  0.02  0.97  0.00  0.00  1.00  0.00
  70                      1.00   0.04  0.00  0.00  0.02  0.94  0.00  0.00  0.00  0.00
  71                      1.00   0.03  0.00  0.00  0.01  0.95  0.00  0.00  0.95  0.00
  72                      5.93   0.00  0.00  0.00  0.98  0.02  0.00  0.00  0.99  0.00
  73                      1.00   0.00  0.00  0.00  0.00  1.00  0.00  0.00  0.99  0.00
  74                      1.00   0.00  0.01  0.00  0.01  0.98  0.00  0.00  0.10  0.00
  75                      1.00   0.00  0.00  0.00  0.00  1.00  0.00  0.00  0.00  0.00
  76                      1.00   0.00  0.00  0.00  0.00  1.00  0.00  0.00  0.04  0.00
  77                      1.29   0.00  0.00  0.00  0.01  0.99  0.00  0.00  0.98  0.00
  777                     1.00   0.00  0.00  0.00  0.00  1.00  0.00  0.00  0.00  0.00
  778                     1.39   0.03  0.00  0.00  0.97  0.00  0.00  0.00  0.00  0.00
  78                      1.09   0.00  0.01  0.00  0.56  0.43  0.00  0.00  0.03  0.00
  781                     1.00   0.00  0.01  0.00  0.01  0.98  0.00  0.00  1.00  0.00
  783                     3.58   0.00  0.00  0.00  0.00  0.99  0.00  0.00  1.00  0.00
  785                     1.00   0.00  0.00  0.00  0.00  1.00  0.00  0.00  0.99  0.00
  787                     1.00   0.00  0.00  0.00  1.00  0.00  0.00  0.00  1.00  0.00
  789                     1.00   0.00  0.00  0.00  0.00  1.00  0.00  0.00  0.97  0.00
  79                      1.00   0.00  0.00  0.00  1.00  0.00  0.00  0.00  0.95  0.00
  792                     1.00   0.01  0.00  0.00  0.80  0.19  0.00  0.00  0.98  0.00
  794                     1.81   0.02  0.00  0.00  0.98  0.00  0.00  0.00  0.00  0.00
  796                     1.55   0.03  0.00  0.00  0.11  0.86  0.00  0.00  0.90  0.00
  798                     1.00   0.00  0.03  0.00  0.97  0.00  0.00  0.00  0.91  0.00
  8                       1.00   0.00  0.00  0.00  0.01  0.99  0.00  0.00  1.00  0.00
  80                      1.00   0.00  0.00  0.00  0.91  0.09  0.00  0.00  0.96  0.00
  800                     1.04   0.00  0.00  0.00  1.00  0.00  0.00  0.00  0.07  0.00
  802                     1.13   0.00  0.00  0.00  1.00  0.00  0.00  0.00  0.04  0.00
  804                     1.00   0.00  0.01  0.00  0.11  0.88  0.00  0.00  0.10  0.00
  807                     1.94   0.01  0.01  0.00  0.75  0.22  0.00  0.00  0.99  0.00
  809                     1.27   0.02  0.00  0.00  0.01  0.97  0.00  0.00  0.99  0.00
  81                      1.00   0.00  0.00  0.00  0.00  1.00  0.00  0.00  0.03  0.00
  811                     1.00   0.01  0.00  0.00  0.01  0.98  0.00  0.00  0.01  0.00
  813                     1.00   0.00  0.00  0.00  0.01  0.99  0.00  0.00  0.87  0.00
  815                     1.00   0.00  0.00  0.00  0.00  0.99  0.00  0.00  0.00  0.00
  817                     1.00   0.00  0.50  0.00  0.49  0.00  0.00  0.00  0.93  0.00
  819                     1.18   0.50  0.18  0.00  0.07  0.25  0.00  0.00  0.88  0.00
  82                      1.00   0.00  0.00  0.00  0.02  0.98  0.00  0.00  1.00  0.00
  821                     1.00   0.03  0.00  0.00  0.00  0.00  0.00  0.97  0.00  0.00
  823                     1.33   0.03  0.00  0.00  0.93  0.05  0.00  0.00  0.98  0.00
  825                     8.75   0.02  0.00  0.00  0.00  0.97  0.00  0.00  0.99  0.00
  827                     2.30   0.02  0.00  0.00  0.00  0.98  0.00  0.00  0.01  0.00
  829                     2.03   0.02  0.00  0.00  0.01  0.98  0.00  0.00  0.99  0.00
  83                      1.00   0.00  1.00  0.00  0.00  0.00  0.00  0.00  0.00  0.00
  831                     3.02   0.01  0.00  0.00  0.00  0.98  0.00  0.00  0.02  0.00
  833                     2.33   0.00  0.00  0.00  0.01  0.99  0.00  0.00  0.99  0.00
  835                     1.00   0.00  0.00  0.00  0.00  0.00  0.00  1.00  0.00  0.00
  839                     1.00   0.24  0.00  0.00  0.00  0.00  0.00  0.76  0.00  0.00
  84                      1.00   0.00  0.00  0.00  1.00  0.00  0.00  0.00  0.00  0.00
  842                    15.20   1.00  0.00  0.00  0.00  0.00  0.00  0.00  0.00  0.00
  845                     1.00   0.02  0.00  0.00  0.98  0.00  0.00  0.00  0.00  0.00
  847                     1.00   0.03  0.00  0.00  0.96  0.00  0.00  0.01  0.95  0.00
  849                     1.00   0.03  0.00  0.00  0.06  0.91  0.00  0.00  0.77  0.00
  85                      1.00   0.00  0.00  0.00  0.97  0.03  0.00  0.00  0.99  0.00
  851                     1.00   0.03  0.00  0.00  0.05  0.93  0.00  0.00  0.89  0.00
  853                     1.00   0.02  0.00  0.00  0.09  0.89  0.00  0.00  0.00  0.00
  86                      1.00   0.01  0.00  0.00  0.01  0.98  0.00  0.00  0.95  0.00
  87                      1.00   0.00  0.01  0.00  0.02  0.01  0.00  0.96  0.03  0.00
  88                      1.00   0.00  0.00  0.00  1.00  0.00  0.00  0.00  0.00  0.00
  89                      1.01   0.01  0.00  0.00  0.98  0.00  0.00  0.00  0.99  0.00
  90                      1.91   0.00  0.00  0.00  0.00  1.00  0.00  0.00  1.00  0.00
  91                      1.78   0.00  0.00  0.00  0.01  0.99  0.00  0.00  0.00  0.00
  92                      1.00   0.01  0.00  0.00  0.01  0.98  0.00  0.00  0.99  0.00
  93                      8.26   0.02  0.00  0.00  0.03  0.95  0.00  0.00  0.00  0.00
  94                      1.12   0.02  0.00  0.00  0.03  0.95  0.00  0.00  0.94  0.00
  95                      1.00   0.03  0.00  0.00  0.03  0.95  0.00  0.00  0.00  0.00
  96                      1.00   0.00  0.00  0.00  0.00  1.00  0.00  0.00  0.94  0.00
  97                      1.00   0.00  1.00  0.00  0.00  0.00  0.00  0.00  0.00  0.00
  98                      1.00   0.00  0.00  0.00  0.96  0.03  0.00  0.00  0.98  0.00
  99                      1.00   0.00  0.00  0.00  0.01  0.99  0.00  0.00  0.01  0.00
  
  
  *************************
  Conduit Surcharge Summary
  *************************
  
  ----------------------------------------------------------------------------
                                                           Hours        Hours 
                         --------- Hours Full --------   Above Full   Capacity
  Conduit                Both Ends  Upstream  Dnstream   Normal Flow   Limited
  ----------------------------------------------------------------------------
  100001                      5.48      5.49      5.49      0.33         3.15
  100101                      0.01      0.27      0.01      0.30         0.01
  100103                      0.10      0.12      0.10      0.14         0.10
  175000                      0.01      0.01      5.99      0.01         0.01
  312                         0.01      0.01      0.01      0.40         0.01
  333                         5.38      5.38      5.71      0.01         0.01
  334                         4.95      4.95      5.38      0.01         0.01
  335                         0.01      0.01      4.95      0.01         0.01
  60                          0.01      0.01      2.04      0.01         0.01
  61                          0.01      0.01      1.22      0.01         0.01
  62                          1.22      1.22      5.11      0.01         0.01
  
  
  ***************
  Pumping Summary
  ***************
  
  ---------------------------------------------------------------------------------------------------------
                                                  Min       Avg       Max     Total     Power    % Time Off
                        Percent   Number of      Flow      Flow      Flow    Volume     Usage    Pump Curve
  Pump                 Utilized   Start-Ups       GPM       GPM       GPM  10^6 gal     Kw-hr    Low   High
  ---------------------------------------------------------------------------------------------------------
  5002                     2.03           1      0.00    504.45    524.32     0.004      0.24    0.0    0.0
  5004                     0.00           0      0.00      0.00      0.00     0.000      0.00    0.0    0.0
  5006                     5.60           5      0.00   3013.25   4557.41     0.057      7.85    0.0    0.0
  5008                     0.12           1      0.00   2139.55   2278.70     0.001      0.08    0.0    0.0
  

  Analysis begun on:  Fri Nov 29 13:18:11 2019
  Analysis ended on:  Fri Nov 29 13:18:11 2019
  Total elapsed time: < 1 sec