
  EPA STORM WATER MANAGEMENT MODEL - VERSION 5.1 (Build 5.1.013)
  --------------------------------------------------------------

  WARNING 02: maximum depth increased for Node 447
  WARNING 02: maximum depth increased for Node 460
  
  **********************           Volume        Volume
  Rainfall Dependent I/I        acre-feet      10^6 gal
  **********************        ---------     ---------
  Sewershed Rainfall ......        44.552        14.518
  RDII Produced ...........         1.627         0.530
  RDII Ratio ..............         0.037
  
  
  *********************************************************
  NOTE: The summary statistics displayed in this report are
  based on results found at every computational time step,  
  not just on results from each reporting time step.
  *********************************************************
  
  ****************
  Analysis Options
  ****************
  Flow Units ............... GPM
  Process Models:
    Rainfall/Runoff ........ YES
    RDII ................... YES
    Snowmelt ............... NO
    Groundwater ............ NO
    Flow Routing ........... YES
    Ponding Allowed ........ YES
    Water Quality .......... NO
  Infiltration Method ...... HORTON
  Flow Routing Method ...... DYNWAVE
  Surcharge Method ......... EXTRAN
  Starting Date ............ 06/18/2012 00:00:00
  Ending Date .............. 06/21/2012 23:00:00
  Antecedent Dry Days ...... 2.0
  Report Time Step ......... 00:05:00
  Wet Time Step ............ 00:15:00
  Dry Time Step ............ 01:00:00
  Routing Time Step ........ 10.00 sec
  Variable Time Step ....... YES
  Maximum Trials ........... 8
  Number of Threads ........ 1
  Head Tolerance ........... 0.000010 ft
  
  
  **************************        Volume         Depth
  Runoff Quantity Continuity     acre-feet        inches
  **************************     ---------       -------
  Total Precipitation ......       804.047         4.950
  Evaporation Loss .........         0.000         0.000
  Infiltration Loss ........       578.660         3.563
  Surface Runoff ...........       225.648         1.389
  Final Storage ............         0.468         0.003
  Continuity Error (%) .....        -0.091
  
  
  **************************        Volume        Volume
  Flow Routing Continuity        acre-feet      10^6 gal
  **************************     ---------     ---------
  Dry Weather Inflow .......         0.000         0.000
  Wet Weather Inflow .......       225.650        73.531
  Groundwater Inflow .......         0.000         0.000
  RDII Inflow ..............         1.626         0.530
  External Inflow ..........         0.000         0.000
  External Outflow .........        64.160        20.907
  Flooding Loss ............       163.059        53.135
  Evaporation Loss .........         0.000         0.000
  Exfiltration Loss ........         0.000         0.000
  Initial Stored Volume ....         0.006         0.002
  Final Stored Volume ......         0.008         0.003
  Continuity Error (%) .....         0.024
  
  
  *************************
  Highest Continuity Errors
  *************************
  Node CAMERON_WW (-159.96%)
  Node CAMPUS_WW (-137.67%)
  Node 1366 (100.00%)
  Node 1361 (93.56%)
  Node 2115 (64.09%)
  
  
  ***************************
  Time-Step Critical Elements
  ***************************
  Link 407 (25.29%)
  Link 1431 (2.67%)
  Link 1161 (2.13%)
  Link 1080 (1.84%)
  
  
  ********************************
  Highest Flow Instability Indexes
  ********************************
  Link 1428 (7)
  Link 1423 (6)
  Link 2187 (4)
  
  
  *************************
  Routing Time Step Summary
  *************************
  Minimum Time Step           :     0.71 sec
  Average Time Step           :     8.68 sec
  Maximum Time Step           :    10.00 sec
  Percent in Steady State     :    -0.00
  Average Iterations per Step :     8.00
  Percent Not Converging      :   100.00
  
  
  ***************************
  Subcatchment Runoff Summary
  ***************************
  
  ------------------------------------------------------------------------------------------------------------------------------
                            Total      Total      Total      Total     Imperv       Perv      Total       Total     Peak  Runoff
                           Precip      Runon       Evap      Infil     Runoff     Runoff     Runoff      Runoff   Runoff   Coeff
  Subcatchment                 in         in         in         in         in         in         in    10^6 gal      GPM
  ------------------------------------------------------------------------------------------------------------------------------
  SUB-3654                   4.95       0.00       0.00       4.85       0.10       0.00       0.10        0.19  1651.82   0.020
  SUB-3656                   4.95       0.00       0.00       3.47       1.48       0.00       1.48        0.00     0.35   0.300
  SUB-3658                   4.95       0.00       0.00       3.47       1.48       0.00       1.48        0.00     3.16   0.300
  SUB-3660                   4.95       0.00       0.00       3.47       1.48       0.00       1.48        0.00     0.35   0.300
  SUB-3662                   4.95       0.00       0.00       4.32       0.63       0.00       0.63        0.07   591.49   0.127
  SUB-3664                   4.95       0.00       0.00       3.47       1.48       0.00       1.48        0.00     0.70   0.300
  SUB-3666                   4.95       0.00       0.00       2.56       2.39       0.00       2.39        0.11   945.45   0.483
  SUB-3668                   4.95       0.00       0.00       3.47       1.48       0.00       1.48        0.00     0.35   0.300
  SUB-3670                   4.95       0.00       0.00       4.71       0.24       0.00       0.24        0.13  1101.55   0.048
  SUB-3672                   4.95       0.00       0.00       3.09       1.86       0.00       1.86        0.00    38.73   0.375
  SUB-3674                   4.95       0.00       0.00       2.20       2.75       0.00       2.75        0.12  1025.50   0.556
  SUB-3676                   4.95       0.00       0.00       3.61       1.34       0.00       1.34        1.66 11026.12   0.270
  SUB-3678                   4.95       0.00       0.00       4.95       0.00       0.00       0.00        0.00     0.80   0.000
  SUB-3680                   4.95       0.00       0.00       3.03       1.92       0.00       1.92        0.13  1095.06   0.387
  SUB-3684                   4.95       0.00       0.00       3.21       1.74       0.00       1.74        4.62 26587.49   0.351
  SUB-3686                   4.95       0.00       0.00       2.39       2.56       0.00       2.56        0.57  4582.73   0.517
  SUB-3688                   4.95       0.00       0.00       2.77       2.18       0.00       2.18        0.51  4062.83   0.441
  SUB-3690                   4.95       0.00       0.00       1.98       2.97       0.00       2.97        0.58  4726.03   0.600
  SUB-3694                   4.95       0.00       0.00       2.63       2.32       0.00       2.32        0.26  2147.08   0.468
  SUB-3696                   4.95       0.00       0.00       2.89       2.06       0.00       2.06        0.60  4777.87   0.416
  SUB-3698                   4.95       0.00       0.00       2.72       2.22       0.00       2.22        0.00     0.53   0.449
  SUB-3700                   4.95       0.00       0.00       1.24       3.71       0.00       3.71        0.00    34.22   0.749
  SUB-3702                   4.95       0.00       0.00       4.07       0.88       0.00       0.88        3.72 28636.84   0.179
  SUB-3704                   4.95       0.00       0.00       4.95       0.00       0.00       0.00        0.00     0.00   0.000
  SUB-3706                   4.95       0.00       0.00       2.05       2.90       0.00       2.90        0.18  1515.00   0.586
  SUB-3708                   4.95       0.00       0.00       2.72       2.22       0.00       2.22        0.00     0.53   0.449
  SUB-3710                   4.95       0.00       0.00       2.72       2.22       0.00       2.22        0.00     1.58   0.449
  SUB-3712                   4.95       0.00       0.00       4.95       0.00       0.00       0.00        0.00     0.00   0.000
  SUB-3714                   4.95       0.00       0.00       3.92       1.03       0.00       1.03        0.00     6.57   0.208
  SUB-3716                   4.95       0.00       0.00       4.95       0.00       0.00       0.00        0.00     0.00   0.000
  SUB-3718                   4.95       0.00       0.00       4.43       0.51       0.00       0.51        0.01    47.40   0.104
  SUB-3720                   4.95       0.00       0.00       4.92       0.03       0.00       0.03        0.00    28.81   0.005
  SUB-3722                   4.95       0.00       0.00       0.92       4.03       0.00       4.03        0.23  1952.44   0.814
  SUB-3724                   4.95       0.00       0.00       2.59       2.37       0.00       2.37        0.50  4149.97   0.478
  SUB-3726                   4.95       0.00       0.00       0.74       4.20       0.00       4.20        0.00     1.00   0.849
  SUB-3728                   4.95       0.00       0.00       4.85       0.10       0.00       0.10        0.00    19.85   0.021
  SUB-3730                   4.95       0.00       0.00       3.91       1.04       0.00       1.04        0.08   704.44   0.210
  SUB-3732                   4.95       0.00       0.00       4.12       0.83       0.00       0.83        0.65  5458.47   0.168
  SUB-3734                   4.95       0.00       0.00       4.72       0.23       0.00       0.23        0.01    81.51   0.046
  SUB-3736                   4.95       0.00       0.00       2.96       1.99       0.00       1.99        0.02   145.92   0.402
  SUB-3738                   4.95       0.00       0.00       3.47       1.48       0.00       1.48        0.00     3.16   0.300
  SUB-3740                   4.95       0.00       0.00       2.22       2.74       0.00       2.74        0.54  4276.32   0.553
  SUB-3742                   4.95       0.00       0.00       3.60       1.35       0.00       1.35        1.40 11492.76   0.273
  SUB-3744                   4.95       0.00       0.00       2.53       2.42       0.00       2.42        0.39  3079.67   0.489
  SUB-3746                   4.95       0.00       0.00       3.47       1.48       0.00       1.48        0.01    78.33   0.300
  SUB-3748                   4.95       0.00       0.00       3.47       1.48       0.00       1.48        0.00     2.11   0.300
  SUB-3750                   4.95       0.00       0.00       2.14       2.81       0.00       2.81        0.24  2020.91   0.569
  SUB-3752                   4.95       0.00       0.00       3.47       1.48       0.00       1.48        0.00    10.19   0.300
  SUB-3754                   4.95       0.00       0.00       4.93       0.02       0.00       0.02        0.01   123.89   0.003
  SUB-3756                   4.95       0.00       0.00       2.96       1.99       0.00       1.99        0.71  5843.56   0.402
  SUB-3758                   4.95       0.00       0.00       2.59       2.37       0.00       2.37        0.43  3598.44   0.478
  SUB-3760                   4.95       0.00       0.00       2.34       2.61       0.00       2.61        0.63  4669.89   0.528
  SUB-3762                   4.95       0.00       0.00       2.52       2.43       0.00       2.43        0.42  3467.54   0.491
  SUB-3764                   4.95       0.00       0.00       3.47       1.48       0.00       1.48        0.00     0.35   0.300
  SUB-3766                   4.95       0.00       0.00       3.47       1.48       0.00       1.48        0.02   175.63   0.300
  SUB-3768                   4.95       0.00       0.00       2.05       2.90       0.00       2.90        0.12  1032.16   0.585
  SUB-3770                   4.95       0.00       0.00       2.84       2.12       0.00       2.12        0.70  5603.91   0.428
  SUB-3772                   4.95       0.00       0.00       2.72       2.22       0.00       2.22        0.00     0.53   0.449
  SUB-3774                   4.95       0.00       0.00       2.72       2.22       0.00       2.22        0.00     0.53   0.449
  SUB-3776                   4.95       0.00       0.00       2.26       2.69       0.00       2.69        0.16  1361.97   0.544
  SUB-3778                   4.95       0.00       0.00       2.66       2.30       0.00       2.30        0.33  2724.24   0.464
  SUB-3780                   4.95       0.00       0.00       2.89       2.06       0.00       2.06        0.04   306.18   0.417
  SUB-3782                   4.95       0.00       0.00       1.43       3.53       0.00       3.53        0.43  3357.43   0.712
  SUB-3784                   4.95       0.00       0.00       2.61       2.34       0.00       2.34        0.04   362.11   0.473
  SUB-3786                   4.95       0.00       0.00       2.12       2.84       0.00       2.84        0.82  6520.48   0.574
  SUB-3788                   4.95       0.00       0.00       2.46       2.49       0.00       2.49       22.26 123426.16   0.503
  SUB-3790                   4.95       0.00       0.00       2.32       2.64       0.00       2.64        7.49 50105.45   0.533
  SUB-3792                   4.95       0.00       0.00       3.44       1.50       0.00       1.50        0.00    25.64   0.304
  SUB-3794                   4.95       0.00       0.00       2.48       2.47       0.00       2.47        0.29  2400.87   0.499
  SUB-3796                   4.95       0.00       0.00       2.10       2.86       0.00       2.86        2.78 19547.40   0.577
  SUB-3798                   4.95       0.00       0.00       1.74       3.21       0.00       3.21        0.07   608.23   0.648
  SUB-3800                   4.95       0.00       0.00       1.64       3.32       0.00       3.32        1.79 12298.82   0.671
  SUB-3802                   4.95       0.00       0.00       2.45       2.50       0.00       2.50        0.18  1512.42   0.506
  SUB-3804                   4.95       0.00       0.00       3.47       1.48       0.00       1.48        0.00     0.35   0.300
  SUB-3806                   4.95       0.00       0.00       2.53       2.42       0.00       2.42        0.19  1576.30   0.490
  SUB-3808                   4.95       0.00       0.00       3.47       1.48       0.00       1.48        0.00     0.35   0.300
  SUB-3810                   4.95       0.00       0.00       3.47       1.48       0.00       1.48        0.00     0.35   0.300
  SUB-3812                   4.95       0.00       0.00       2.57       2.38       0.00       2.38        0.53  3964.27   0.481
  SUB-3814                   4.95       0.00       0.00       3.47       1.48       0.00       1.48        0.00     0.35   0.300
  SUB-3816                   4.95       0.00       0.00       3.47       1.48       0.00       1.48        0.00     0.35   0.300
  SUB-3818                   4.95       0.00       0.00       3.47       1.48       0.00       1.48        0.00     0.35   0.300
  SUB-3820                   4.95       0.00       0.00       3.55       1.40       0.00       1.40        0.21  1783.70   0.282
  SUB-3822                   4.95       0.00       0.00       3.47       1.48       0.00       1.48        0.00    29.15   0.300
  SUB-3824                   4.95       0.00       0.00       3.47       1.48       0.00       1.48        0.00     0.35   0.300
  SUB-3826                   4.95       0.00       0.00       3.47       1.48       0.00       1.48        0.04   379.36   0.300
  SUB-3828                   4.95       0.00       0.00       3.95       1.00       0.00       1.00        0.03   273.54   0.202
  SUB-3830                   4.95       0.00       0.00       2.46       2.49       0.00       2.49        0.13  1141.88   0.503
  SUB-3832                   4.95       0.00       0.00       3.47       1.48       0.00       1.48        0.00     0.35   0.300
  SUB-3834                   4.95       0.00       0.00       1.98       2.97       0.00       2.97        0.08   674.10   0.601
  SUB-3836                   4.95       0.00       0.00       3.47       1.48       0.00       1.48        0.00     1.40   0.300
  SUB-3838                   4.95       0.00       0.00       3.47       1.48       0.00       1.48        0.00     0.35   0.300
  SUB-3840                   4.95       0.00       0.00       3.47       1.48       0.00       1.48        0.00     1.05   0.300
  SUB-3842                   4.95       0.00       0.00       3.47       1.48       0.00       1.48        0.00     0.35   0.300
  SUB-3844                   4.95       0.00       0.00       3.47       1.48       0.00       1.48        0.00    27.05   0.300
  SUB-3846                   4.95       0.00       0.00       3.47       1.48       0.00       1.48        0.00     0.35   0.300
  SUB-3848                   4.95       0.00       0.00       3.47       1.48       0.00       1.48        0.00     0.35   0.300
  SUB-3850                   4.95       0.00       0.00       3.57       1.38       0.00       1.38        6.29 43685.92   0.279
  SUB-3852                   4.95       0.00       0.00       2.26       2.69       0.00       2.69        0.86  6803.41   0.544
  SUB-3854                   4.95       0.00       0.00       3.37       1.58       0.00       1.58        0.06   486.58   0.319
  SUB-3856                   4.95       0.00       0.00       1.47       3.48       0.00       3.48        0.10   839.68   0.703
  SUB-3858                   4.95       0.00       0.00       1.92       3.04       0.00       3.04        0.60  4727.76   0.613
  SUB-3860                   4.95       0.00       0.00       2.81       2.14       0.00       2.14        0.17  1439.64   0.433
  SUB-3862                   4.95       0.00       0.00       2.51       2.44       0.00       2.44        0.46  3709.09   0.493
  SUB-3864                   4.95       0.00       0.00       3.36       1.58       0.00       1.58        0.04   298.28   0.320
  SUB-3866                   4.95       0.00       0.00       2.77       2.18       0.00       2.18        0.12   985.11   0.441
  SUB-3868                   4.95       0.00       0.00       2.55       2.40       0.00       2.40        0.10   886.50   0.484
  SUB-3870                   4.95       0.00       0.00       2.01       2.94       0.00       2.94        0.09   736.52   0.593
  SUB-3872                   4.95       0.00       0.00       1.89       3.06       0.00       3.06        0.28  2306.59   0.619
  SUB-3874                   4.95       0.00       0.00       3.47       1.48       0.00       1.48        0.03   244.12   0.300
  SUB-3876                   4.95       0.00       0.00       2.53       2.42       0.00       2.42        1.06  8363.38   0.489
  SUB-3878                   4.95       0.00       0.00       3.47       1.48       0.00       1.48        0.03   285.91   0.300
  SUB-3880                   4.95       0.00       0.00       2.73       2.22       0.00       2.22        0.40  3334.92   0.448
  SUB-3882                   4.95       0.00       0.00       4.48       0.47       0.00       0.47        0.10   853.57   0.094
  SUB-3884                   4.95       0.00       0.00       4.87       0.08       0.00       0.08        0.45  3812.21   0.016
  SUB-3886                   4.95       0.00       0.00       4.20       0.75       0.00       0.75        2.41 20014.70   0.152
  SUB-3888                   4.95       0.00       0.00       4.70       0.25       0.00       0.25        1.38 11416.79   0.051
  
  
  ******************
  Node Depth Summary
  ******************
  
  ---------------------------------------------------------------------------------
                                 Average  Maximum  Maximum  Time of Max    Reported
                                   Depth    Depth      HGL   Occurrence   Max Depth
  Node                 Type         Feet     Feet     Feet  days hr:min        Feet
  ---------------------------------------------------------------------------------
  1078                 JUNCTION     4.52    13.80   899.90     0  01:56       13.79
  1079                 JUNCTION     3.40    10.63   913.80     0  01:56       10.63
  1080                 JUNCTION     2.54    12.05   925.80     0  06:45       12.05
  1081                 JUNCTION     1.45    10.08   935.30     0  06:52       10.08
  1082                 JUNCTION     0.86     8.57   944.80     0  08:27        8.57
  1083                 JUNCTION     0.44     9.67   955.90     0  09:41        9.67
  1084                 JUNCTION     0.27     7.96   983.86     0  09:41        7.96
  1085                 JUNCTION     0.31     9.52   999.70     0  09:41        9.52
  1086                 JUNCTION     0.34     6.65   901.05     0  10:18        6.55
  1087                 JUNCTION     0.04     0.48   905.38     0  10:18        0.47
  1088                 JUNCTION     0.04     0.36   919.51     0  10:16        0.35
  1089                 JUNCTION     0.34     0.85   925.03     0  10:16        0.84
  1090                 JUNCTION     0.01     0.12   935.30     0  10:15        0.12
  1091                 JUNCTION     0.00     0.01   947.67     0  11:15        0.01
  1092                 JUNCTION     0.00     0.01   940.86     0  11:15        0.01
  1093                 JUNCTION     0.01     0.01   936.46     0  11:15        0.01
  1094                 JUNCTION     3.21    14.04   911.00     0  08:15       14.04
  1095                 JUNCTION     0.64     5.96   911.00     0  08:15        5.96
  1096                 JUNCTION     0.00     0.01   917.85     0  11:15        0.01
  1097                 JUNCTION     0.18     1.30   905.20     0  10:45        1.30
  1098                 JUNCTION     0.01     0.01   910.91     0  11:15        0.01
  1099                 JUNCTION     0.00     0.01   921.46     0  11:15        0.01
  1124                 JUNCTION     2.59     8.60   955.60     0  02:41        8.60
  1125                 JUNCTION     2.38     8.30   953.30     0  06:18        8.30
  1126                 JUNCTION     1.97     8.09   948.59     0  07:28        8.09
  1127                 JUNCTION     0.96     7.99   945.59     0  10:01        7.99
  1128                 JUNCTION     1.10     7.14   945.08     0  09:20        7.14
  1129                 JUNCTION     0.49     1.46   940.00     0  01:55        1.46
  1130                 JUNCTION     0.12     0.44   947.44     0  10:15        0.44
  1131                 JUNCTION     0.12     9.18   958.18     0  10:11        9.18
  1132                 JUNCTION     0.02     0.23   969.23     0  10:15        0.22
  1133                 JUNCTION     0.02     0.22   986.22     0  10:15        0.22
  1134                 JUNCTION     0.00     0.02   999.02     0  10:15        0.02
  1135                 JUNCTION     0.39     8.00   949.00     0  10:05        8.00
  1136                 JUNCTION     0.71     5.86   945.00     0  08:54        5.86
  1137                 JUNCTION     0.83     6.26   945.00     0  09:12        6.26
  1138                 JUNCTION     0.95     6.70   945.04     0  09:20        6.70
  1139                 JUNCTION     0.33     0.41  1031.41     0  00:08        0.40
  1140                 JUNCTION     0.00     0.00  1036.00     0  00:00        0.00
  1141                 JUNCTION     0.00     0.00  1039.00     0  00:00        0.00
  1142                 JUNCTION     0.00     0.00  1039.00     0  00:00        0.00
  1143                 JUNCTION     0.00     0.00  1037.00     0  00:00        0.00
  1144                 JUNCTION     0.11     7.35   997.35     0  10:16        7.21
  1145                 JUNCTION     0.00     0.00  1038.00     0  00:00        0.00
  1146                 JUNCTION     0.00     0.00  1058.00     0  00:00        0.00
  1147                 JUNCTION     0.00     0.00  1084.00     0  00:00        0.00
  1148                 JUNCTION     0.39    11.00   995.00     0  10:00       11.00
  1149                 JUNCTION     0.34     7.83   990.73     0  09:50        7.83
  1150                 JUNCTION     0.32     7.90   989.40     0  10:01        7.90
  1151                 JUNCTION     0.21     8.00   988.00     0  10:14        8.00
  1152                 JUNCTION     0.14     7.35   993.35     0  10:03        7.35
  1153                 JUNCTION     0.40     7.72   952.90     0  09:49        7.72
  1154                 JUNCTION     0.36    10.81   956.90     0  10:14       10.81
  1155                 JUNCTION     0.11     6.84   963.84     0  10:15        6.84
  1156                 JUNCTION     0.01     0.15   964.15     0  10:16        0.15
  1157                 JUNCTION     0.01     0.13   987.13     0  10:15        0.13
  1158                 JUNCTION     0.01     0.14  1017.14     0  10:15        0.13
  1159                 JUNCTION     0.00     0.09  1045.09     0  00:06        0.06
  1160                 JUNCTION     0.00     0.09  1059.09     0  00:06        0.06
  1161                 JUNCTION     0.00     0.09  1080.59     0  00:05        0.08
  1163                 JUNCTION     0.00     0.10  1109.10     0  00:04        0.10
  1164                 JUNCTION     0.00     0.12  1124.12     0  00:03        0.10
  1165                 JUNCTION     0.00     0.13  1144.63     0  00:02        0.08
  1166                 JUNCTION     0.00     0.15  1168.15     0  00:02        0.06
  1167                 JUNCTION     0.94    14.77   962.77     0  09:35       14.77
  1168                 JUNCTION     0.47    10.05   965.05     0  09:33       10.05
  1169                 JUNCTION     0.26     8.28  1073.28     0  09:55        8.28
  1170                 JUNCTION     0.21     7.19  1070.19     0  10:02        7.19
  1171                 JUNCTION     0.32     8.36  1065.36     0  10:02        8.36
  1172                 JUNCTION     0.07     0.44  1055.44     0  10:35        0.44
  1173                 JUNCTION     0.00     0.00  1064.00     0  00:00        0.00
  1174                 JUNCTION     0.00     0.00  1082.00     0  00:00        0.00
  1175                 JUNCTION     0.00     0.00  1090.00     0  00:00        0.00
  1176                 JUNCTION     0.00     0.00  1099.00     0  00:00        0.00
  1177                 JUNCTION     0.00     0.00  1109.00     0  00:00        0.00
  1178                 JUNCTION     0.00     0.00  1130.00     0  00:00        0.00
  1179                 JUNCTION     0.00     0.00  1139.00     0  00:00        0.00
  1180                 JUNCTION     0.00     0.00  1148.00     0  00:00        0.00
  1181                 JUNCTION     0.00     0.00  1155.00     0  00:00        0.00
  1182                 JUNCTION     0.00     0.00  1058.00     0  00:00        0.00
  1183                 JUNCTION     0.00     0.00  1053.00     0  00:00        0.00
  1184                 JUNCTION     0.00     0.00  1048.00     0  00:00        0.00
  1185                 JUNCTION     0.00     0.00  1036.00     0  00:00        0.00
  1186                 JUNCTION     0.00     0.00  1028.00     0  00:00        0.00
  1187                 JUNCTION     0.00     0.00  1020.46     0  00:00        0.00
  1188                 JUNCTION     0.17     9.33   997.33     0  10:16        9.22
  1189                 JUNCTION     0.23    10.52   997.32     0  10:16       10.44
  1329                 JUNCTION     0.00     0.00  1221.00     0  00:00        0.00
  1330                 JUNCTION     0.00     0.00  1219.00     0  00:00        0.00
  1331                 JUNCTION     0.00     0.00  1207.00     0  00:00        0.00
  1332                 JUNCTION     0.00     0.00  1203.00     0  00:00        0.00
  1333                 JUNCTION     0.00     0.00  1201.00     0  00:00        0.00
  1334                 JUNCTION     0.00     0.00  1200.00     0  00:00        0.00
  1335                 JUNCTION     0.00     0.00  1205.00     0  00:00        0.00
  1336                 JUNCTION     0.00     0.00  1264.00     0  00:00        0.00
  1337                 JUNCTION     0.00     0.00  1261.00     0  00:00        0.00
  1338                 JUNCTION     0.00     0.00  1258.50     0  00:00        0.00
  1339                 JUNCTION     0.00     0.00  1248.00     0  00:00        0.00
  1340                 JUNCTION     0.00     0.00  1230.00     0  00:00        0.00
  1341                 JUNCTION     0.00     0.00  1229.30     0  00:00        0.00
  1342                 JUNCTION     0.00     0.00  1228.30     0  00:00        0.00
  1343                 JUNCTION     0.00     0.00  1227.00     0  00:00        0.00
  1344                 JUNCTION     0.00     0.00  1220.00     0  00:00        0.00
  1345                 JUNCTION     0.00     0.00  1202.00     0  00:00        0.00
  1346                 JUNCTION     0.00     0.00  1166.00     0  00:00        0.00
  1347                 JUNCTION     0.00     0.00  1148.00     0  00:00        0.00
  1348                 JUNCTION     0.00     0.00  1141.00     0  00:00        0.00
  1349                 JUNCTION     0.00     0.00  1139.00     0  00:00        0.00
  1350                 JUNCTION     0.00     0.00  1138.74     0  00:00        0.00
  1351                 JUNCTION     0.00     0.00  1138.00     0  00:00        0.00
  1352                 JUNCTION     0.00     0.00  1122.00     3  19:47        0.00
  1353                 JUNCTION     0.00     0.00  1122.50     0  00:00        0.00
  1354                 JUNCTION     0.00     0.00  1123.50     0  00:00        0.00
  1355                 JUNCTION     0.00     0.00  1125.00     0  00:00        0.00
  1356                 JUNCTION     0.00     0.00  1334.00     0  00:00        0.00
  1357                 JUNCTION     0.00     0.00  1337.00     0  00:00        0.00
  1358                 JUNCTION     0.00     0.00  1343.00     0  00:00        0.00
  1359                 JUNCTION     0.00     0.00  1241.50     0  00:00        0.00
  1360                 JUNCTION     0.00     0.00  1233.00     0  00:00        0.00
  1361                 JUNCTION    19.31    22.00  1215.00     3  19:25       22.00
  1362                 JUNCTION     0.00     0.00  1193.00     3  23:00        0.00
  1363                 JUNCTION     0.00     0.00  1166.50     3  19:36        0.00
  1364                 JUNCTION     0.00     0.00  1137.00     3  19:41        0.00
  1365                 JUNCTION     0.00     0.00  1114.00     3  20:02        0.00
  1366                 JUNCTION     0.00     0.06  1107.06     3  23:00        0.06
  1367                 JUNCTION     0.00     0.00  1261.00     0  00:00        0.00
  1368                 JUNCTION     0.00     0.00  1278.00     0  00:00        0.00
  1369                 JUNCTION     0.00     0.00  1288.00     0  00:00        0.00
  1370                 JUNCTION     0.00     0.00  1295.00     0  00:00        0.00
  1371                 JUNCTION     0.00     0.00  1291.50     0  00:00        0.00
  1372                 JUNCTION     0.00     0.00  1296.00     0  00:00        0.00
  1373                 JUNCTION     0.00     0.00  1300.50     0  00:00        0.00
  1374                 JUNCTION     0.00     0.00  1312.50     0  00:00        0.00
  1375                 JUNCTION     0.00     0.00  1238.50     0  00:00        0.00
  1376                 JUNCTION     0.00     0.00  1250.00     0  00:00        0.00
  1377                 JUNCTION     0.00     0.00  1264.00     0  00:00        0.00
  1378                 JUNCTION     0.00     0.00  1243.00     0  00:00        0.00
  1379                 JUNCTION     0.00     0.00  1251.00     0  00:00        0.00
  1380                 JUNCTION     0.00     0.00  1262.00     0  00:00        0.00
  1381                 JUNCTION     0.00     0.00  1277.50     0  00:00        0.00
  1382                 JUNCTION     0.00     0.00  1297.00     0  00:00        0.00
  1383                 JUNCTION     0.00     0.00  1307.00     0  00:00        0.00
  1384                 JUNCTION     0.00     0.00  1348.00     0  00:00        0.00
  1385                 JUNCTION     0.00     0.00  1305.00     0  00:00        0.00
  1386                 JUNCTION     0.00     0.00  1298.00     0  00:00        0.00
  1387                 JUNCTION     0.00     0.00  1297.00     0  00:00        0.00
  1388                 JUNCTION     0.00     0.00  1343.00     0  00:00        0.00
  1389                 JUNCTION     0.00     0.00  1340.50     0  00:00        0.00
  1390                 JUNCTION     0.00     0.00  1331.00     0  00:00        0.00
  1391                 JUNCTION     0.00     0.00  1173.00     0  00:00        0.00
  1392                 JUNCTION     0.00     0.00  1192.00     0  00:00        0.00
  1393                 JUNCTION     0.00     0.00  1204.00     0  00:00        0.00
  1394                 JUNCTION     0.00     0.00  1234.00     0  00:00        0.00
  1395                 JUNCTION     0.00     0.00  1256.00     0  00:00        0.00
  1396                 JUNCTION     0.00     0.00  1108.00     0  00:00        0.00
  1397                 JUNCTION     0.00     0.00  1115.50     0  00:00        0.00
  1398                 JUNCTION     0.00     0.00  1134.00     0  00:00        0.00
  1399                 JUNCTION     0.00     0.00  1161.00     0  00:00        0.00
  1400                 JUNCTION     0.00     0.00  1186.00     0  00:00        0.00
  1401                 JUNCTION     0.00     0.00  1198.50     0  00:00        0.00
  1402                 JUNCTION     0.00     0.00  1221.00     0  00:00        0.00
  1403                 JUNCTION     0.00     0.00  1251.00     0  00:00        0.00
  1404                 JUNCTION     0.00     0.00  1284.00     0  00:00        0.00
  1405                 JUNCTION     0.00     0.00  1320.00     0  00:00        0.00
  1406                 JUNCTION     0.00     0.00  1346.00     0  00:00        0.00
  1407                 JUNCTION     0.00     0.00  1366.50     0  00:00        0.00
  1408                 JUNCTION     0.00     0.00  1386.00     0  00:00        0.00
  1409                 JUNCTION     0.00     0.00  1406.00     0  00:00        0.00
  1410                 JUNCTION     0.00     0.00  1409.60     0  00:00        0.00
  1411                 JUNCTION     0.00     0.00  1244.00     0  00:00        0.00
  1412                 JUNCTION     0.00     0.00  1260.00     0  00:00        0.00
  1413                 JUNCTION     0.00     0.00  1268.00     0  00:00        0.00
  1414                 JUNCTION     0.00     0.00  1276.00     0  00:00        0.00
  1415                 JUNCTION     0.00     0.00  1314.00     0  00:00        0.00
  1416                 JUNCTION     0.00     0.00  1276.30     0  00:00        0.00
  1417                 JUNCTION     0.00     0.00  1276.60     0  00:00        0.00
  1418                 JUNCTION     0.02     0.62   965.12     0  09:34        0.56
  1419                 JUNCTION     0.34     8.43   970.43     0  09:39        8.43
  1420                 JUNCTION     0.09     7.46   976.96     0  10:15        5.52
  1421                 JUNCTION     0.04     5.85   985.85     0  10:15        1.42
  1422                 JUNCTION     0.02     0.22   990.22     0  10:15        0.22
  1423                 JUNCTION     0.00     0.00   997.00     0  00:00        0.00
  1424                 JUNCTION     0.00     0.00  1001.35     0  00:00        0.00
  1425                 JUNCTION     0.00     0.00  1157.71     0  00:00        0.00
  1426                 JUNCTION     0.00     0.00  1148.51     0  00:00        0.00
  1427                 JUNCTION     0.00     0.00  1110.00     0  00:00        0.00
  1428                 JUNCTION     0.00     0.00  1119.00     0  00:00        0.00
  1429                 JUNCTION     0.00     0.00  1133.80     0  00:00        0.00
  1430                 JUNCTION     0.07     6.05   961.05     0  10:13        6.05
  1431                 JUNCTION     0.08     6.09   959.09     0  10:13        6.09
  1432                 JUNCTION     0.08     6.77   958.27     0  10:08        6.77
  1433                 JUNCTION     0.26     1.34   953.34     0  14:07        1.31
  1434                 JUNCTION     0.00     0.00   960.00     0  00:00        0.00
  1435                 JUNCTION     0.00     0.00   985.00     0  00:00        0.00
  1436                 JUNCTION     0.00     0.00  1021.00     0  00:00        0.00
  1437                 JUNCTION     0.00     0.00  1019.50     0  00:00        0.00
  1438                 JUNCTION     0.00     0.42  1019.42     0  10:19        0.41
  1439                 JUNCTION     0.05     3.44  1020.44     0  10:14        2.36
  1440                 JUNCTION     0.05     2.54  1009.54     0  10:15        2.06
  1441                 JUNCTION     0.06     4.38  1005.38     0  10:15        3.94
  1442                 JUNCTION     0.07     5.12  1001.12     0  10:15        4.82
  1443                 JUNCTION     0.24     8.50   996.50     0  10:02        8.50
  1444                 JUNCTION     0.29     8.28   989.28     0  09:55        8.28
  1445                 JUNCTION     0.53     9.74   980.74     0  09:20        9.74
  1446                 JUNCTION     0.43     7.04   972.04     0  09:20        7.01
  1447                 JUNCTION     0.80     7.83   961.83     0  08:21        7.83
  1448                 JUNCTION     0.77     6.13   956.13     0  08:21        6.12
  1449                 JUNCTION     0.19     8.11   901.11     0  10:01        8.11
  1450                 JUNCTION     0.30     8.50   893.50     0  09:56        8.50
  1451                 JUNCTION     0.94     6.85   883.73     0  09:02        6.85
  1452                 JUNCTION     1.14     6.20   882.60     0  07:48        6.20
  1453                 JUNCTION     0.18     6.99   910.99     0  10:01        6.99
  1454                 JUNCTION     0.34     7.94   905.94     0  10:00        7.94
  1455                 JUNCTION     0.59     8.29   902.29     0  09:51        8.29
  1456                 JUNCTION     0.76     7.14   898.74     0  08:18        7.14
  1457                 JUNCTION     0.75     7.08   898.08     0  11:34        7.08
  1458                 JUNCTION     0.07     1.16   898.16     0  08:19        1.09
  1459                 JUNCTION     0.75     6.92   896.11     0  08:57        6.92
  1460                 JUNCTION     0.73     6.34   894.64     0  08:59        6.34
  1461                 JUNCTION     0.00     0.00   902.00     0  00:00        0.00
  1462                 JUNCTION     0.00     0.00   889.00     0  00:00        0.00
  1463                 JUNCTION     0.41     4.30   877.65     0  10:15        4.30
  1464                 JUNCTION     1.50     5.86   877.65     0  10:15        5.86
  1465                 JUNCTION     3.56    10.78   911.78     0  02:17       10.78
  1466                 JUNCTION     1.19     6.21   903.21     0  08:55        6.21
  1467                 JUNCTION     0.66     6.09   901.55     0  09:00        6.09
  1468                 JUNCTION     0.00     0.00  1124.00     0  00:00        0.00
  1469                 JUNCTION     0.00     0.00  1121.00     0  00:00        0.00
  1470                 JUNCTION     0.00     0.00  1106.00     0  00:00        0.00
  1471                 JUNCTION     0.00     0.00  1093.00     0  00:00        0.00
  1472                 JUNCTION     0.00     0.00  1082.00     0  00:00        0.00
  1473                 JUNCTION     0.00     0.00  1080.00     0  00:00        0.00
  1474                 JUNCTION     0.00     0.00  1070.50     0  00:00        0.00
  1488                 JUNCTION     0.28     0.92   852.20     0  10:37        0.92
  1489                 JUNCTION     0.95     5.58   861.62     0  10:00        5.58
  1490                 JUNCTION     0.84     6.17   867.07     0  10:00        6.17
  1491                 JUNCTION     0.81     7.07   871.37     0  10:09        7.07
  1492                 JUNCTION     0.74     5.96   874.93     0  10:15        5.96
  1493                 JUNCTION     0.85     5.60   880.24     0  10:15        5.60
  1494                 JUNCTION     0.86     6.83   888.52     0  08:59        6.83
  1495                 JUNCTION     0.82     9.14   907.14     0  09:29        9.14
  1496                 JUNCTION     0.37     5.80   914.02     0  09:49        5.80
  1497                 JUNCTION     0.20     0.99   918.99     0  10:58        0.99
  1498                 JUNCTION     0.44     6.04   930.64     0  09:49        6.03
  1661                 JUNCTION     0.72     7.21   847.05     0  09:13        7.19
  1662                 JUNCTION     0.43     5.97   848.00     0  09:13        5.97
  1663                 JUNCTION     0.07     0.33   856.41     0  10:45        0.33
  1664                 JUNCTION     0.11     0.96   858.81     0  09:52        0.96
  1665                 JUNCTION     0.24     3.74   862.39     0  09:52        3.73
  1666                 JUNCTION     0.25     4.40   863.24     0  09:52        4.40
  1667                 JUNCTION     0.24     5.89   866.70     0  09:52        5.89
  1668                 JUNCTION     0.34     7.11   868.90     0  10:03        7.11
  1669                 JUNCTION     0.19     7.48   869.49     0  10:04        6.89
  1670                 JUNCTION     0.02     4.40   872.13     0  10:04        1.17
  1671                 JUNCTION     0.01     0.01   871.74     0  11:15        0.01
  1672                 JUNCTION     0.00     0.01   889.74     0  11:15        0.01
  1673                 JUNCTION     0.19    10.99   890.50     0  10:03       10.99
  1674                 JUNCTION     0.16    11.35   915.80     0  10:05       11.35
  1675                 JUNCTION     0.05     0.49   950.44     0  10:15        0.48
  1676                 JUNCTION     0.00     0.01   983.35     0  11:15        0.01
  1677                 JUNCTION     0.00     0.01   990.44     0  11:15        0.01
  1678                 JUNCTION     0.12     2.88   954.11     0  10:01        2.79
  1679                 JUNCTION     0.12     4.66   957.50     0  10:01        4.66
  1680                 JUNCTION     0.98     7.80   846.80     0  09:13        7.77
  1681                 JUNCTION     0.63     8.00   913.60     0  09:34        8.00
  1682                 JUNCTION     0.66     8.00   920.06     0  10:00        8.00
  1683                 JUNCTION     0.63     7.61   926.25     0  10:01        7.60
  1684                 JUNCTION     0.60     7.18   932.43     0  10:01        7.18
  1685                 JUNCTION     0.55     6.53   938.61     0  10:01        6.53
  1701                 JUNCTION     1.92     7.58   897.20     0  09:30        7.58
  1702                 JUNCTION     4.03    12.10   903.30     0  07:00       12.10
  1703                 JUNCTION     1.73     6.22   905.20     0  11:13        6.22
  1704                 JUNCTION     1.62     6.47   906.75     0  10:45        6.47
  1705                 JUNCTION     1.52     6.66   908.00     0  07:01        6.66
  1706                 JUNCTION     0.11     4.66   920.35     0  10:01        3.38
  1707                 JUNCTION     0.16     6.19   934.00     0  10:00        6.19
  1708                 JUNCTION     0.00     0.01   941.11     0  11:15        0.01
  1710                 JUNCTION     3.16     9.33   903.00     0  02:02        9.33
  1711                 JUNCTION     1.93     5.88   903.10     0  02:06        5.82
  1712                 JUNCTION     1.40     4.41   903.21     0  02:06        4.29
  1713                 JUNCTION     0.00     0.01   913.29     0  11:15        0.01
  1742                 JUNCTION     0.03     0.29   811.85     0  10:40        0.29
  1743                 JUNCTION     0.17     0.62   812.47     0  10:39        0.62
  1744                 JUNCTION     0.05     0.49   812.85     0  10:36        0.49
  1745                 JUNCTION     0.05     0.50   813.26     0  10:32        0.50
  1746                 JUNCTION     0.05     0.50   813.66     0  10:30        0.50
  1747                 JUNCTION     0.05     0.50   814.06     0  10:28        0.50
  1748                 JUNCTION     0.05     0.51   814.47     0  10:26        0.51
  1749                 JUNCTION     0.05     0.50   814.86     0  10:23        0.50
  1750                 JUNCTION     0.05     0.50   815.26     0  10:21        0.50
  1751                 JUNCTION     0.05     0.49   815.65     0  10:20        0.49
  1752                 JUNCTION     0.05     0.52   816.12     0  10:17        0.51
  1753                 JUNCTION     0.00     0.00   819.70     0  00:00        0.00
  1754                 JUNCTION     0.00     0.00   819.70     0  00:00        0.00
  1755                 JUNCTION     0.00     0.00   819.70     0  00:00        0.00
  1756                 JUNCTION     0.00     0.00   819.70     0  00:00        0.00
  1757                 JUNCTION     0.00     0.00   819.00     0  00:00        0.00
  1758                 JUNCTION     0.00     0.00   819.70     0  00:00        0.00
  1759                 JUNCTION     0.00     0.00   824.00     0  00:00        0.00
  1760                 JUNCTION     0.01     0.02   812.75     0  10:22        0.02
  1761                 JUNCTION     0.00     0.00   813.33     0  00:00        0.00
  1762                 JUNCTION     0.00     0.00   814.10     0  00:00        0.00
  1819                 JUNCTION     0.00     0.00   918.50     0  00:00        0.00
  1820                 JUNCTION     0.00     0.00   916.86     0  00:00        0.00
  1821                 JUNCTION     0.00     0.00   915.45     0  00:00        0.00
  1822                 JUNCTION     0.03     0.35   914.60     0  10:16        0.34
  1823                 JUNCTION     0.29     8.33   936.80     0  10:09        8.33
  1824                 JUNCTION     0.21     6.77   938.77     0  10:09        6.77
  1825                 JUNCTION     0.17     4.40   940.40     0  09:53        4.40
  1826                 JUNCTION     0.04     3.17   941.67     0  09:53        1.90
  1827                 JUNCTION     2.77     9.09   938.59     0  10:15        9.09
  1828                 JUNCTION     2.09     6.07   937.32     0  01:55        6.07
  1829                 JUNCTION     0.46     9.50   946.00     0  10:04        9.50
  1830                 JUNCTION     1.77     7.13   945.33     0  10:15        7.13
  1831                 JUNCTION     2.79    10.80   950.70     0  09:18       10.80
  1832                 JUNCTION     3.24     9.40   951.00     0  01:43        9.40
  1833                 JUNCTION     0.55     7.65   922.21     0  10:09        7.65
  1835                 JUNCTION     0.00     0.00   999.00     0  00:00        0.00
  1836                 JUNCTION     0.00     0.00  1002.00     0  00:00        0.00
  1837                 JUNCTION     0.07     7.00  1010.00     0  10:13        7.00
  1838                 JUNCTION     0.03     0.36   992.36     0  10:18        0.36
  1839                 JUNCTION     0.00     0.00   993.00     0  00:00        0.00
  1840                 JUNCTION     0.00     0.00  1059.50     0  00:00        0.00
  1841                 JUNCTION     0.00     0.00  1038.00     0  00:00        0.00
  1842                 JUNCTION     0.00     0.00  1033.00     0  00:00        0.00
  1843                 JUNCTION     0.23     7.76  1030.76     0  10:02        7.76
  1844                 JUNCTION     0.11     3.19  1019.19     0  10:02        3.01
  1845                 JUNCTION     0.18     7.34  1007.34     0  10:02        7.17
  1846                 JUNCTION     0.16     6.38  1036.38     0  10:20        6.38
  1847                 JUNCTION     0.07     0.48  1044.48     0  10:27        0.48
  1848                 JUNCTION     1.63     8.91   952.91     0  07:37        8.91
  1849                 JUNCTION     1.25    10.19   958.19     0  08:38       10.19
  1850                 JUNCTION     0.19     7.03   980.03     0  10:15        7.03
  1851                 JUNCTION     0.00     0.00  1295.00     0  00:00        0.00
  1852                 JUNCTION     0.00     0.00  1289.00     0  00:00        0.00
  1853                 JUNCTION     0.00     0.00  1269.80     0  00:00        0.00
  1854                 JUNCTION     0.00     0.00  1357.00     0  00:00        0.00
  1855                 JUNCTION     0.00     0.00  1306.00     0  00:00        0.00
  1856                 JUNCTION     0.00     0.00  1324.00     0  00:00        0.00
  1857                 JUNCTION     0.00     0.00  1333.00     0  00:00        0.00
  1858                 JUNCTION     0.00     0.00  1335.50     0  00:00        0.00
  1859                 JUNCTION     0.00     0.00  1339.50     0  00:00        0.00
  1860                 JUNCTION     0.00     0.00  1341.69     0  00:00        0.00
  1878                 JUNCTION     0.00     0.00   939.88     0  00:00        0.00
  1879                 JUNCTION     0.54     8.85   935.96     0  09:49        8.84
  1880                 JUNCTION     0.47     9.20   944.00     0  09:48        9.20
  1887                 JUNCTION     0.00     0.00  1003.00     0  00:00        0.00
  1888                 JUNCTION     0.00     0.00  1014.50     0  00:00        0.00
  1889                 JUNCTION     0.00     0.00  1130.75     0  00:00        0.00
  1890                 JUNCTION     0.00     0.00  1151.00     0  00:00        0.00
  1890B                JUNCTION     0.00     0.00  1154.80     0  00:00        0.00
  1891                 JUNCTION     0.00     0.00  1151.05     0  00:00        0.00
  2115                 JUNCTION    57.95   115.87  1225.87     0  00:00       58.07
  2176                 JUNCTION     0.01     0.01   848.21     0  11:15        0.01
  2178                 JUNCTION     0.08     1.75   846.85     0  09:13        1.67
  2180                 JUNCTION     0.29     4.82   846.83     0  09:13        4.76
  2182                 JUNCTION     1.68     8.60   845.00     0  09:13        8.60
  2184                 JUNCTION     2.01    10.60   845.50     0  01:52        8.83
  2186                 JUNCTION     2.41    10.78   843.98     0  01:52        9.26
  2188                 JUNCTION     0.00     0.00  1412.10     0  00:00        0.00
  2190                 JUNCTION     0.00     0.00  1368.20     0  00:00        0.00
  2192                 JUNCTION     0.00     0.00  1419.25     0  00:00        0.00
  2194                 JUNCTION     0.00     0.00  1425.45     0  00:00        0.00
  2196                 JUNCTION     0.00     0.00  1432.60     0  00:00        0.00
  2218                 JUNCTION    12.31    17.06  1217.06     0  00:00       14.99
  443                  JUNCTION     0.72     3.06   882.20     0  10:45        3.06
  444                  JUNCTION     0.18     0.50   882.70     0  11:02        0.50
  445                  JUNCTION     1.13     3.50   887.02     0  01:49        3.43
  446                  JUNCTION     1.43     6.53   891.00     0  09:18        6.53
  447                  JUNCTION    29.75    30.60   877.24     0  11:09       30.60
  448                  JUNCTION     2.10     6.21   871.20     0  01:48        6.21
  449                  JUNCTION     1.37     4.76   868.00     0  01:48        4.76
  450                  JUNCTION     0.41     4.60   866.00     0  09:50        4.60
  451                  JUNCTION     0.74     7.19   865.00     0  09:52        7.19
  452                  JUNCTION     0.52     8.74   865.30     0  10:06        8.74
  453                  JUNCTION     0.46     7.85   861.42     0  10:30        7.85
  454                  JUNCTION     2.91     8.58   848.90     0  01:50        8.58
  455                  JUNCTION     2.72     7.84   844.40     0  01:50        7.84
  456                  JUNCTION     3.04    10.90   845.00     0  10:06       10.90
  457                  JUNCTION     3.15    12.78   846.28     0  10:15       12.78
  458                  JUNCTION     2.65     9.55   841.81     0  10:15        9.55
  459                  JUNCTION     3.78    11.56   839.19     0  10:15       11.56
  459A                 JUNCTION     4.74    13.50   837.56     0  01:53       13.50
  460                  JUNCTION     5.50    16.18   839.50     0  06:42       16.18
  461                  JUNCTION     3.70    13.10   835.00     0  10:15       12.93
  462                  JUNCTION     1.91    10.08   830.40     0  10:15        9.70
  2217                 OUTFALL      0.43     1.00   808.15     0  01:51        1.00
  OFALL-10             OUTFALL      0.28     0.92   808.07     0  10:28        0.92
  OFALL-12             OUTFALL      0.02     0.29   807.44     0  10:40        0.29
  SSO_OUTFALL          OUTFALL      0.09     0.63   839.03     0  06:41        0.62
  CAMERON_WW           STORAGE      0.00     4.50  1196.50     0  00:00        1.50
  CAMPUS_WW            STORAGE      0.00     3.50  1104.50     0  00:00        0.00
  
  
  *******************
  Node Inflow Summary
  *******************
  
  -------------------------------------------------------------------------------------------------
                                  Maximum  Maximum                  Lateral       Total        Flow
                                  Lateral    Total  Time of Max      Inflow      Inflow     Balance
                                   Inflow   Inflow   Occurrence      Volume      Volume       Error
  Node                 Type           GPM      GPM  days hr:min    10^6 gal    10^6 gal     Percent
  -------------------------------------------------------------------------------------------------
  1078                 JUNCTION      0.37  1335.15     0  01:47    0.000447        1.85      -0.006
  1079                 JUNCTION  20014.86 21236.10     0  10:15        2.42        3.73       0.004
  1080                 JUNCTION    149.29  1383.60     0  10:15       0.018        1.34       0.000
  1081                 JUNCTION   2021.07  3569.73     0  10:15       0.241        1.55      -0.000
  1082                 JUNCTION   3598.59  5751.43     0  10:15       0.435        1.57      -0.000
  1083                 JUNCTION      0.37  2153.04     0  11:02    0.000447        1.14       0.000
  1084                 JUNCTION      0.37  2152.68     0  11:02    0.000447        1.14      -0.001
  1085                 JUNCTION  11540.84 11540.84     0  10:15        1.39        1.39      -0.000
  1086                 JUNCTION      0.37   764.55     0  10:18    0.000447      0.0974       0.006
  1087                 JUNCTION      0.37   785.74     0  10:16    0.000447       0.097      -0.001
  1088                 JUNCTION      0.37   788.16     0  10:16    0.000447      0.0965       0.001
  1089                 JUNCTION    704.63   804.52     0  10:15      0.0833      0.0962       0.134
  1090                 JUNCTION    102.56   102.72     0  10:15      0.0125      0.0129      -0.026
  1091                 JUNCTION      0.37     0.37     0  11:00    0.000447    0.000447       0.080
  1092                 JUNCTION      0.37     0.37     0  11:00    0.000447    0.000447       0.005
  1093                 JUNCTION      0.37     0.74     0  11:15    0.000447    0.000895       0.092
  1094                 JUNCTION  11546.89 11547.19     0  10:15         1.4        1.41      -0.001
  1095                 JUNCTION      0.37    11.82     0  05:04    0.000447     0.00168      -0.467
  1096                 JUNCTION      0.37     0.37     0  11:00    0.000447    0.000447       0.476
  1097                 JUNCTION      0.37    18.08     0  02:02    0.000447     0.00192       0.020
  1098                 JUNCTION      0.37     0.74     0  11:15    0.000447    0.000895       0.160
  1099                 JUNCTION      0.37     0.37     0  11:00    0.000447    0.000447       0.013
  1124                 JUNCTION  19547.40 19547.40     0  10:15        2.78        2.78      -0.001
  1125                 JUNCTION   2400.87  3157.22     0  10:15       0.288        1.42      -0.000
  1126                 JUNCTION      0.00  1605.99     0  07:41           0        2.04       0.001
  1127                 JUNCTION   6803.41  7781.19     0  10:15       0.859        3.71      -0.000
  1128                 JUNCTION  12298.82 12844.98     0  10:15        1.79        2.05      -0.001
  1129                 JUNCTION      0.00  2702.75     0  10:15           0        1.84       0.000
  1130                 JUNCTION     25.64  1405.24     0  10:15     0.00301        1.23      -0.000
  1131                 JUNCTION   1141.88  1831.28     0  10:15       0.134       0.266      -0.004
  1132                 JUNCTION      0.00   486.65     0  10:15           0      0.0575      -0.000
  1133                 JUNCTION    486.58   489.28     0  10:15      0.0572      0.0575       0.000
  1134                 JUNCTION      2.81     2.81     0  10:15    0.000331    0.000331       0.013
  1135                 JUNCTION      0.35  1534.13     0  10:15    4.13e-05       0.264      -0.000
  1136                 JUNCTION      0.00   997.15     0  10:08           0        0.25      -0.001
  1137                 JUNCTION      0.00   270.29     0  08:54           0       0.177      -0.002
  1138                 JUNCTION      0.00   269.81     0  08:54           0       0.177      -0.002
  1139                 JUNCTION      0.00    84.44     0  00:06           0    0.000523      23.337
  1140                 JUNCTION      0.00     0.00     0  00:00           0           0       0.000 gal
  1141                 JUNCTION      0.00     0.00     0  00:00           0           0       0.000 gal
  1142                 JUNCTION      0.00     0.00     0  00:00           0           0       0.000 gal
  1143                 JUNCTION      0.00     0.00     0  00:00           0           0       0.000 gal
  1144                 JUNCTION      0.00   127.60     0  09:50           0     0.00138      -0.216
  1145                 JUNCTION      0.00     0.00     0  00:00           0           0       0.000 gal
  1146                 JUNCTION      0.00     0.00     0  00:00           0           0       0.000 gal
  1147                 JUNCTION      0.00     0.00     0  00:00           0           0       0.000 gal
  1148                 JUNCTION   3709.09  4407.98     0  10:15       0.458       0.545       0.001
  1149                 JUNCTION    985.11  2174.74     0  10:15       0.116       0.585      -0.002
  1150                 JUNCTION    886.50  1535.46     0  10:15       0.104       0.626      -0.000
  1151                 JUNCTION     28.10  2068.34     0  10:15      0.0033       0.956      -0.001
  1152                 JUNCTION   3146.27  3146.27     0  10:15       0.381       0.381      -0.001
  1153                 JUNCTION  43685.92 53224.29     0  10:15        6.29        8.37      -0.000
  1154                 JUNCTION      0.00  9655.56     0  10:15           0        2.08      -0.010
  1155                 JUNCTION   8363.38  8590.02     0  10:15        1.06        1.09       0.008
  1156                 JUNCTION      0.00   240.76     0  10:15           0      0.0291       0.007
  1157                 JUNCTION      0.00   242.03     0  10:15           0      0.0291       0.006
  1158                 JUNCTION    244.12   244.12     0  10:15      0.0287      0.0291       0.008
  1159                 JUNCTION      0.00    90.42     0  00:06           0    0.000548       4.825
  1160                 JUNCTION      0.00   100.65     0  00:05           0    0.000552       0.583
  1161                 JUNCTION      0.00   122.71     0  00:04           0    0.000561       1.677
  1163                 JUNCTION      0.00   134.62     0  00:04           0    0.000566       0.909
  1164                 JUNCTION      0.00   182.70     0  00:03           0    0.000576       1.856
  1165                 JUNCTION      0.00   235.77     0  00:02           0    0.000586       1.654
  1166                 JUNCTION      0.00   401.49     0  00:02           0    0.000657       0.158
  1167                 JUNCTION   3943.15  5007.81     0  10:15        0.47        1.12       0.000
  1168                 JUNCTION   1783.70  2671.41     0  10:15       0.212       0.709       0.001
  1169                 JUNCTION   4727.76  4727.76     0  10:15       0.595       0.595      -0.000
  1170                 JUNCTION      0.00  1192.38     0  10:57           0       0.501      -0.001
  1171                 JUNCTION   1439.64  2535.28     0  10:15       0.171       0.672       0.000
  1172                 JUNCTION      0.00  1670.96     0  10:09           0       0.656      -0.000
  1173                 JUNCTION      0.00     0.00     0  00:00           0           0       0.000 gal
  1174                 JUNCTION      0.00     0.00     0  00:00           0           0       0.000 gal
  1175                 JUNCTION      0.00     0.00     0  00:00           0           0       0.000 gal
  1176                 JUNCTION      0.00     0.00     0  00:00           0           0       0.000 gal
  1177                 JUNCTION      0.00     0.00     0  00:00           0           0       0.000 gal
  1178                 JUNCTION      0.00     0.00     0  00:00           0           0       0.000 gal
  1179                 JUNCTION      0.00     0.00     0  00:00           0           0       0.000 gal
  1180                 JUNCTION      0.00     0.00     0  00:00           0           0       0.000 gal
  1181                 JUNCTION      0.00     0.00     0  00:00           0           0       0.000 gal
  1182                 JUNCTION      0.00     0.00     0  00:00           0           0       0.000 gal
  1183                 JUNCTION      0.00     0.00     0  00:00           0           0       0.000 gal
  1184                 JUNCTION      0.00     0.00     0  00:00           0           0       0.000 gal
  1185                 JUNCTION      0.00     0.00     0  00:00           0           0       0.000 gal
  1186                 JUNCTION      0.00     0.00     0  00:00           0           0       0.000 gal
  1187                 JUNCTION      0.00     0.00     0  00:00           0           0       0.000 gal
  1188                 JUNCTION      0.00   128.23     0  09:50           0     0.00324       0.009
  1189                 JUNCTION    736.52   736.52     0  10:15      0.0871       0.089      -0.001
  1329                 JUNCTION      0.00     0.00     0  00:00           0           0       0.000 gal
  1330                 JUNCTION      0.00     0.00     0  00:00           0           0       0.000 gal
  1331                 JUNCTION      0.00     0.00     0  00:00           0           0       0.000 gal
  1332                 JUNCTION      0.00     0.00     0  00:00           0           0       0.000 gal
  1333                 JUNCTION      0.00     0.00     0  00:00           0           0       0.000 gal
  1334                 JUNCTION      0.00     0.00     0  00:00           0           0       0.000 gal
  1335                 JUNCTION      0.00     0.00     0  00:00           0           0       0.000 gal
  1336                 JUNCTION      0.00     0.00     0  00:00           0           0       0.000 gal
  1337                 JUNCTION      0.00     0.00     0  00:00           0           0       0.000 gal
  1338                 JUNCTION      0.00     0.00     0  00:00           0           0       0.000 gal
  1339                 JUNCTION      0.00     0.00     0  00:00           0           0       0.000 gal
  1340                 JUNCTION      0.00     0.00     0  00:00           0           0       0.000 gal
  1341                 JUNCTION      0.00     0.00     0  00:00           0           0       0.000 gal
  1342                 JUNCTION      0.00     0.00     0  00:00           0           0       0.000 gal
  1343                 JUNCTION      0.00     0.00     0  00:00           0           0       0.000 gal
  1344                 JUNCTION      0.00     0.00     0  00:00           0           0       0.000 gal
  1345                 JUNCTION      0.00     0.00     0  00:00           0           0       0.000 gal
  1346                 JUNCTION      0.00     0.00     0  00:00           0           0       0.000 gal
  1347                 JUNCTION      0.00     0.00     0  00:00           0           0       0.000 gal
  1348                 JUNCTION      0.00     0.00     0  00:00           0           0       0.000 gal
  1349                 JUNCTION      0.00     0.00     0  00:00           0           0       0.000 gal
  1350                 JUNCTION      0.00     0.00     0  00:00           0           0       0.000 gal
  1351                 JUNCTION      0.00     0.00     0  00:00           0           0       0.000 gal
  1352                 JUNCTION      0.00     0.56     3  19:03           0     3.1e-05       1.396
  1353                 JUNCTION      0.00     0.00     0  00:00           0           0       0.000 gal
  1354                 JUNCTION      0.00     0.00     0  00:00           0           0       0.000 gal
  1355                 JUNCTION      0.00     0.00     0  00:00           0           0       0.000 gal
  1356                 JUNCTION      0.00     0.00     0  00:00           0           0       0.000 gal
  1357                 JUNCTION      0.00     0.00     0  00:00           0           0       0.000 gal
  1358                 JUNCTION      0.00     0.00     0  00:00           0           0       0.000 gal
  1359                 JUNCTION      0.00     0.00     0  00:00           0           0       0.000 gal
  1360                 JUNCTION      0.00     0.00     0  00:00           0           0       0.000 gal
  1361                 JUNCTION      0.00   382.54     0  00:00           0     0.00308    1452.689
  1362                 JUNCTION      0.00     0.59     3  18:55           0    3.23e-05       2.015
  1363                 JUNCTION      0.00     0.31     3  18:57           0    3.17e-05       1.194
  1364                 JUNCTION      0.00     0.32     3  19:00           0    3.13e-05       0.954
  1365                 JUNCTION      0.00     0.13     3  19:47           0    3.06e-05       1.518
  1366                 JUNCTION      0.00     0.23     3  19:08           0    3.01e-05      30.099 gal
  1367                 JUNCTION      0.00     0.00     0  00:00           0           0       0.000 gal
  1368                 JUNCTION      0.00     0.00     0  00:00           0           0       0.000 gal
  1369                 JUNCTION      0.00     0.00     0  00:00           0           0       0.000 gal
  1370                 JUNCTION      0.00     0.00     0  00:00           0           0       0.000 gal
  1371                 JUNCTION      0.00     0.00     0  00:00           0           0       0.000 gal
  1372                 JUNCTION      0.00     0.00     0  00:00           0           0       0.000 gal
  1373                 JUNCTION      0.00     0.00     0  00:00           0           0       0.000 gal
  1374                 JUNCTION      0.00     0.00     0  00:00           0           0       0.000 gal
  1375                 JUNCTION      0.00     0.00     0  00:00           0           0       0.000 gal
  1376                 JUNCTION      0.00     0.00     0  00:00           0           0       0.000 gal
  1377                 JUNCTION      0.00     0.00     0  00:00           0           0       0.000 gal
  1378                 JUNCTION      0.00     0.00     0  00:00           0           0       0.000 gal
  1379                 JUNCTION      0.00     0.00     0  00:00           0           0       0.000 gal
  1380                 JUNCTION      0.00     0.00     0  00:00           0           0       0.000 gal
  1381                 JUNCTION      0.00     0.00     0  00:00           0           0       0.000 gal
  1382                 JUNCTION      0.00     0.00     0  00:00           0           0       0.000 gal
  1383                 JUNCTION      0.00     0.00     0  00:00           0           0       0.000 gal
  1384                 JUNCTION      0.00     0.00     0  00:00           0           0       0.000 gal
  1385                 JUNCTION      0.00     0.00     0  00:00           0           0       0.000 gal
  1386                 JUNCTION      0.00     0.00     0  00:00           0           0       0.000 gal
  1387                 JUNCTION      0.00     0.00     0  00:00           0           0       0.000 gal
  1388                 JUNCTION      0.00     0.00     0  00:00           0           0       0.000 gal
  1389                 JUNCTION      0.00     0.00     0  00:00           0           0       0.000 gal
  1390                 JUNCTION      0.00     0.00     0  00:00           0           0       0.000 gal
  1391                 JUNCTION      0.00     0.00     0  00:00           0           0       0.000 gal
  1392                 JUNCTION      0.00     0.00     0  00:00           0           0       0.000 gal
  1393                 JUNCTION      0.00     0.00     0  00:00           0           0       0.000 gal
  1394                 JUNCTION      0.00     0.00     0  00:00           0           0       0.000 gal
  1395                 JUNCTION      0.00     0.00     0  00:00           0           0       0.000 gal
  1396                 JUNCTION      0.00     0.00     0  00:00           0           0       0.000 gal
  1397                 JUNCTION      0.00     0.00     0  00:00           0           0       0.000 gal
  1398                 JUNCTION      0.00     0.00     0  00:00           0           0       0.000 gal
  1399                 JUNCTION      0.00     0.00     0  00:00           0           0       0.000 gal
  1400                 JUNCTION      0.00     0.00     0  00:00           0           0       0.000 gal
  1401                 JUNCTION      0.00     0.00     0  00:00           0           0       0.000 gal
  1402                 JUNCTION      0.00     0.00     0  00:00           0           0       0.000 gal
  1403                 JUNCTION      0.00     0.00     0  00:00           0           0       0.000 gal
  1404                 JUNCTION      0.00     0.00     0  00:00           0           0       0.000 gal
  1405                 JUNCTION      0.00     0.00     0  00:00           0           0       0.000 gal
  1406                 JUNCTION      0.00     0.00     0  00:00           0           0       0.000 gal
  1407                 JUNCTION      0.00     0.00     0  00:00           0           0       0.000 gal
  1408                 JUNCTION      0.00     0.00     0  00:00           0           0       0.000 gal
  1409                 JUNCTION      0.00     0.00     0  00:00           0           0       0.000 gal
  1410                 JUNCTION      0.00     0.00     0  00:00           0           0       0.000 gal
  1411                 JUNCTION      0.00     0.00     0  00:00           0           0       0.000 gal
  1412                 JUNCTION      0.00     0.00     0  00:00           0           0       0.000 gal
  1413                 JUNCTION      0.00     0.00     0  00:00           0           0       0.000 gal
  1414                 JUNCTION      0.00     0.00     0  00:00           0           0       0.000 gal
  1415                 JUNCTION      0.00     0.00     0  00:00           0           0       0.000 gal
  1416                 JUNCTION      0.00     0.00     0  00:00           0           0       0.000 gal
  1417                 JUNCTION      0.00     0.00     0  00:00           0           0       0.000 gal
  1418                 JUNCTION      0.00    46.27     0  09:33           0    0.000349      -0.750
  1419                 JUNCTION   4085.74  5176.81     0  10:15        0.48       0.614      -0.001
  1420                 JUNCTION      0.00  1129.84     0  10:15           0       0.134       0.003
  1421                 JUNCTION    853.57  1132.21     0  10:15         0.1       0.134      -0.006
  1422                 JUNCTION    285.91   285.91     0  10:15      0.0336      0.0336       0.002
  1423                 JUNCTION      0.00     0.00     0  00:00           0           0       0.000 gal
  1424                 JUNCTION      0.00     0.00     0  00:00           0           0       0.000 gal
  1425                 JUNCTION      0.00     0.00     0  00:00           0           0       0.000 gal
  1426                 JUNCTION      0.00     0.00     0  00:00           0           0       0.000 gal
  1427                 JUNCTION      0.00     0.00     0  00:00           0           0       0.000 gal
  1428                 JUNCTION      0.00     0.00     0  00:00           0           0       0.000 gal
  1429                 JUNCTION      0.00     0.00     0  00:00           0           0       0.000 gal
  1430                 JUNCTION    674.10   674.10     0  10:15      0.0796      0.0796      -0.007
  1431                 JUNCTION      0.00   637.57     0  10:15           0      0.0795      -0.014
  1432                 JUNCTION      0.35   637.92     0  10:15    4.13e-05      0.0796       0.002
  1433                 JUNCTION      0.00    41.31     0  02:41           0    0.000797      -0.321
  1434                 JUNCTION      0.00     0.00     0  00:00           0           0       0.000 gal
  1435                 JUNCTION      0.00     0.00     0  00:00           0           0       0.000 gal
  1436                 JUNCTION      0.00     0.00     0  00:00           0           0       0.000 gal
  1437                 JUNCTION      0.00     0.00     0  00:00           0           0       0.000 gal
  1438                 JUNCTION      0.00   133.00     0  10:15           0    0.000337       1.974
  1439                 JUNCTION   1576.30  1576.30     0  10:15       0.194       0.194       0.008
  1440                 JUNCTION      0.00  1513.73     0  10:15           0       0.194      -0.014
  1441                 JUNCTION      0.00  1446.07     0  10:15           0       0.194      -0.006
  1442                 JUNCTION      0.00  1440.95     0  10:15           0       0.194      -0.006
  1443                 JUNCTION     30.20  3168.07     0  10:15     0.00355       0.882      -0.001
  1444                 JUNCTION      0.35  2118.55     0  10:15    4.13e-05       0.854       0.000
  1445                 JUNCTION    379.36  2300.78     0  10:15      0.0446       0.888      -0.001
  1446                 JUNCTION      0.00  1202.63     0  11:27           0       0.805      -0.000
  1447                 JUNCTION   3964.27  6566.99     0  10:15       0.527        1.51      -0.000
  1448                 JUNCTION      0.00  1379.61     0  10:15           0        1.23       0.000
  1449                 JUNCTION   5603.91  5603.91     0  10:15       0.696       0.696      -0.000
  1450                 JUNCTION      0.00  1945.07     0  10:28           0       0.618      -0.001
  1451                 JUNCTION      0.00  1393.86     0  10:41           0       0.591       0.001
  1452                 JUNCTION   5855.85 19386.32     0  10:15       0.712        13.7      -0.001
  1453                 JUNCTION   3079.67  3079.67     0  10:15        0.39        0.39      -0.000
  1454                 JUNCTION      0.00  1056.33     0  10:11           0       0.345      -0.001
  1455                 JUNCTION      0.00   952.52     0  10:44           0        0.34       0.000
  1456                 JUNCTION   4669.89  5374.98     0  10:15       0.627       0.953      -0.000
  1457                 JUNCTION      0.00   803.84     0  08:18           0       0.668       0.001
  1458                 JUNCTION      0.00    57.92     0  08:17           0    0.000457      -1.668
  1459                 JUNCTION      0.00   778.06     0  08:23           0       0.668       0.005
  1460                 JUNCTION      0.00 12837.22     0  12:12           0        12.5      -0.000
  1461                 JUNCTION      0.00     0.00     0  00:00           0           0       0.000 gal
  1462                 JUNCTION      0.00     0.00     0  00:00           0           0       0.000 gal
  1463                 JUNCTION      0.00    85.20     0  05:48           0     0.00137      -0.886
  1464                 JUNCTION      0.00 11528.42     0  07:49           0        12.7       0.001
  1465                 JUNCTION   2724.24  4702.13     0  10:15       0.335        2.19      -0.000
  1466                 JUNCTION      0.00  1230.90     0  02:24           0        1.74       0.000
  1467                 JUNCTION    175.98 15246.02     0  10:15      0.0207        12.3      -0.001
  1468                 JUNCTION      0.00     0.00     0  00:00           0           0       0.000 gal
  1469                 JUNCTION      0.00     0.00     0  00:00           0           0       0.000 gal
  1470                 JUNCTION      0.00     0.00     0  00:00           0           0       0.000 gal
  1471                 JUNCTION      0.00     0.00     0  00:00           0           0       0.000 gal
  1472                 JUNCTION      0.00     0.00     0  00:00           0           0       0.000 gal
  1473                 JUNCTION      0.00     0.00     0  00:00           0           0       0.000 gal
  1474                 JUNCTION      0.00     0.00     0  00:00           0           0       0.000 gal
  1488                 JUNCTION      0.00 12675.84     0  10:37           0        13.4       0.000
  1489                 JUNCTION      0.00 12675.84     0  10:45           0        13.4      -0.001
  1490                 JUNCTION   1952.44 15508.69     0  10:15       0.234        13.5       0.000
  1491                 JUNCTION   4276.32 14796.77     0  10:15       0.539        13.3      -0.000
  1492                 JUNCTION      0.00 11521.77     0  13:37           0        12.7      -0.000
  1493                 JUNCTION     78.33 11544.97     0  07:48     0.00921        12.7       0.001
  1494                 JUNCTION      0.00 12780.96     0  11:42           0        12.5       0.000
  1495                 JUNCTION      0.00 16174.56     0  11:07           0        10.7       0.001
  1496                 JUNCTION      0.00 13350.32     0  10:27           0        7.09      -0.000
  1497                 JUNCTION      0.00 13350.31     0  11:14           0        7.09       0.000
  1498                 JUNCTION      0.00 13350.32     0  10:51           0        7.09      -0.000
  1661                 JUNCTION      0.37   562.86     0  09:13    0.000447       0.396       0.005
  1662                 JUNCTION      0.37   943.44     0  10:45    0.000447       0.436      -0.001
  1663                 JUNCTION      0.37   943.08     0  10:45    0.000447       0.435       0.001
  1664                 JUNCTION      0.37   942.71     0  10:45    0.000447       0.435       0.000
  1665                 JUNCTION      0.37   942.35     0  10:45    0.000447       0.435       0.000
  1666                 JUNCTION      0.37   942.06     0  09:53    0.000447       0.434      -0.002
  1667                 JUNCTION      0.37  1479.32     0  10:40    0.000447        0.46       0.003
  1668                 JUNCTION      0.37  1651.23     0  10:04    0.000447       0.467       0.013
  1669                 JUNCTION      0.37   269.56     0  10:04    0.000447      0.0035       0.376
  1670                 JUNCTION      0.37   270.82     0  10:04    0.000447     0.00196      -0.255
  1671                 JUNCTION      0.37     0.75     0  10:04    0.000447    0.000895       0.084
  1672                 JUNCTION      0.37     0.37     0  11:00    0.000447    0.000447       0.042
  1673                 JUNCTION      0.37  2082.91     0  10:30    0.000447       0.479      -0.006
[...]
  1877                    1.00   1.00  0.00  0.00  0.00  0.00  0.00  0.00  0.00  0.00
  1878                    1.47   1.00  0.00  0.00  0.00  0.00  0.00  0.00  0.00  0.00
  1879                    1.00   0.01  0.99  0.00  0.00  0.00  0.00  0.00  0.00  0.00
  1880                    1.09   0.00  1.00  0.00  0.00  0.00  0.00  0.00  0.00  0.00
  1881                    1.00   1.00  0.00  0.00  0.00  0.00  0.00  0.00  0.00  0.00
  1882                    1.00   1.00  0.00  0.00  0.00  0.00  0.00  0.00  0.00  0.00
  1883                    1.26   1.00  0.00  0.00  0.00  0.00  0.00  0.00  0.00  0.00
  1932                    2.51   1.00  0.00  0.00  0.00  0.00  0.00  0.00  0.00  0.00
  2021                    1.00   0.00  0.00  0.00  1.00  0.00  0.00  0.00  0.96  0.00
  2022                    1.63   1.00  0.00  0.00  0.00  0.00  0.00  0.00  0.00  0.00
  2150                    1.00   0.01  0.00  0.00  0.72  0.27  0.00  0.00  0.73  0.00
  2172                    1.00   0.05  0.00  0.00  0.05  0.00  0.00  0.90  0.04  0.00
  2173                    1.00   0.05  0.00  0.00  0.10  0.00  0.00  0.85  0.03  0.00
  2174                    1.00   0.01  0.04  0.00  0.74  0.00  0.00  0.21  0.88  0.00
  2175                    1.00   0.01  0.00  0.00  0.34  0.00  0.00  0.64  0.00  0.00
  2176                    1.00   0.01  0.00  0.00  0.35  0.00  0.00  0.64  0.00  0.00
  2177                    1.00   0.01  0.00  0.00  0.35  0.00  0.00  0.64  0.00  0.00
  2178                    1.00   0.01  0.00  0.00  0.37  0.00  0.00  0.61  0.03  0.00
  2179                    1.04   1.00  0.00  0.00  0.00  0.00  0.00  0.00  0.00  0.00
  2180                    1.00   1.00  0.00  0.00  0.00  0.00  0.00  0.00  0.00  0.00
  2181                    1.00   1.00  0.00  0.00  0.00  0.00  0.00  0.00  0.00  0.00
  2182                    1.00   1.00  0.00  0.00  0.00  0.00  0.00  0.00  0.00  0.00
  2183                    1.00   1.00  0.00  0.00  0.00  0.00  0.00  0.00  0.00  0.00
  2184                    1.00   0.01  0.00  0.00  0.35  0.64  0.00  0.00  0.20  0.00
  2185                    1.00   0.01  0.00  0.00  0.00  0.99  0.00  0.00  0.10  0.00
  2186                    1.00   0.01  0.00  0.00  0.59  0.40  0.00  0.00  0.03  0.00
  2187                    1.00   0.00  0.00  0.00  1.00  0.00  0.00  0.00  0.00  0.00
  2188                    1.00   0.01  0.00  0.00  0.68  0.31  0.00  0.00  0.96  0.00
  2189                    1.32   0.01  0.00  0.00  0.94  0.05  0.00  0.00  0.74  0.00
  2190                    1.00   0.01  0.00  0.00  0.00  0.00  0.00  0.99  0.00  0.00
  397                     1.00   0.01  0.00  0.00  0.85  0.14  0.00  0.00  0.65  0.00
  398                     1.00   0.01  0.00  0.00  0.36  0.63  0.00  0.00  0.06  0.00
  399                     6.33   0.01  0.00  0.00  0.74  0.25  0.00  0.00  0.73  0.00
  400                     1.68   0.01  0.00  0.00  0.36  0.63  0.00  0.00  0.73  0.00
  401                     1.00   0.01  0.00  0.00  0.35  0.64  0.00  0.00  0.00  0.00
  402                     1.00   0.01  0.00  0.00  0.61  0.38  0.00  0.00  0.00  0.00
  403                     1.00   0.01  0.00  0.00  0.55  0.44  0.00  0.00  0.01  0.00
  404                     1.00   0.01  0.00  0.00  0.38  0.61  0.00  0.00  0.74  0.00
  405                     1.29   0.01  0.00  0.00  0.07  0.92  0.00  0.00  0.83  0.00
  406                     3.72   0.01  0.00  0.00  0.05  0.94  0.00  0.00  0.02  0.00
  407                     1.07   0.01  0.00  0.00  0.05  0.93  0.00  0.00  0.00  0.00
  408                     1.00   0.01  0.00  0.00  0.62  0.37  0.00  0.00  0.92  0.00
  409                     1.00   0.01  0.00  0.00  0.26  0.73  0.00  0.00  0.00  0.00
  410                     1.00   0.01  0.00  0.00  0.90  0.09  0.00  0.00  0.74  0.00
  411                     1.00   0.01  0.01  0.00  0.00  0.98  0.00  0.00  0.93  0.00
  412                     1.08   0.01  0.00  0.00  0.97  0.02  0.00  0.00  0.74  0.00
  413                     5.90   0.01  0.00  0.00  0.00  0.99  0.00  0.00  0.25  0.00
  414                     1.00   0.01  0.00  0.00  0.00  0.00  0.00  0.99  0.00  0.00
  415                     1.00   0.01  0.00  0.00  0.00  0.00  0.00  0.99  0.00  0.00
  CDT-11                 94.35   0.75  0.00  0.00  0.00  0.25  0.00  0.00  0.03  0.00
  
  
  *************************
  Conduit Surcharge Summary
  *************************
  
  ----------------------------------------------------------------------------
                                                           Hours        Hours 
                         --------- Hours Full --------   Above Full   Capacity
  Conduit                Both Ends  Upstream  Dnstream   Normal Flow   Limited
  ----------------------------------------------------------------------------
  1073                       22.57     23.32     22.57     23.34        22.57
  1074                       22.50     22.50     22.60     22.44        22.44
  1075                       21.32     21.32     22.50      8.30         8.30
  1076                       11.80     11.80     21.32      0.01         0.01
  1077                        7.94      7.94     11.80      0.01         0.01
  1078                        4.17      4.17      7.94      1.58         1.58
  1079                        1.63      1.63      4.17      0.01         0.01
  1080                        1.60      1.60      1.63      1.59         1.55
  1081                       10.13     10.13     23.28      0.01         0.01
  1082                        0.01      0.01     10.13      0.01         0.01
  1085                        0.01      0.01      0.43      0.01         0.01
  1088                        0.01      0.01     10.15      0.01         0.01
  1089                       10.65     10.65     21.28      0.01         0.01
  1089A                      23.18     23.18     23.96      5.66         5.66
  1090                        0.01      0.01     10.65      0.01         0.01
  1092                        8.44      8.44     22.83      0.01         0.01
  1093                        0.01      0.01      8.44      0.01         0.01
  1118                       22.12     22.12     22.16     22.10        22.10
  1119                       22.16     22.16     22.35     22.07        22.07
  1120                       22.35     22.35     22.59     22.46        22.34
  1121                       22.59     22.97     22.59     22.08        20.79
  1122                       22.73     22.73     22.97      9.04         0.01
  1123                        0.01      0.01     22.73      0.01         0.01
  1124                        0.01      0.01      0.66      0.01         0.01
  1127                        0.66      0.66      6.20      0.37         0.37
  1128                        6.20      6.20     21.04      0.75         0.75
  1129                       21.04     21.04     22.54      0.01         0.01
  1130                       22.54     22.54     22.69      0.01         0.01
  1131                       22.69     22.69     22.97      0.01         0.01
  1139                        3.15      3.15      3.45      2.74         2.74
  1140                        3.53      3.53      3.83      3.06         3.05
  1141                        1.39      4.00      1.39      2.84         0.79
  1142                        0.84      0.84      1.39      0.01         0.01
  1143                        1.76      1.76      1.82      0.69         0.69
  1144                        0.30      0.30      1.63      0.01         0.01
  1145                        0.01      0.01      0.30      0.01         0.01
  1157                        3.34      3.55      3.34      3.94         3.34
  1158                        4.56     10.28      4.56     10.84         4.56
  1159                        1.55      1.55      1.58      1.60         1.53
  1160                        1.58      1.58      3.50      0.01         0.01
  1161                        0.01      3.50      0.01      2.48         0.01
  1176                        1.50      1.50      1.70      0.01         0.01
  1177                        1.70      1.70      1.99      0.01         0.01
  1178                        2.08      2.08      3.15      0.01         0.01
  1386                        0.01      0.01      2.49      0.01         0.01
  1388                        1.58      1.58      2.39      0.01         0.01
  1389                        0.11      0.11      1.58      0.01         0.01
  1390                        0.01      0.01      0.11      0.01         0.01
  1396                        0.60      0.60      0.66      0.01         0.01
  1397                        0.52      0.52      0.60      0.01         0.01
  1398                        0.45      0.45      0.52      0.01         0.01
  1399                       12.89     12.89     92.45      0.01         0.01
  1402                        0.01     11.79      0.01      9.12         0.01
  1403                        8.33      8.33     11.79      6.08         6.08
  1404                        4.55      4.55      8.33      0.01         0.01
  1405                        3.90      3.90      4.55      3.24         3.24
  1406                        2.44      2.44      3.90      0.01         0.01
  1407                        1.58      1.58      2.44      0.81         0.81
  1408                        0.81      0.81      1.58      0.01         0.01
  1409                        0.28      0.28      0.81      0.01         0.01
  1410                        0.16      0.16      0.28      0.01         0.01
  1411                        0.13      0.15      0.16      0.16         0.12
  1412                        0.01      0.01      0.15      0.01         0.01
  1416                        1.24      1.24      3.08      0.01         0.01
  1417                        3.08      3.08     22.61      1.15         1.15
  1418                       22.61     22.61     24.01      5.43         5.43
  1419                        1.39      1.39      5.14      0.01         0.01
  1420                        5.14      5.14      6.15      0.01         0.01
  1421                        6.15      6.15      9.14      1.58         1.59
  1422                        9.14      9.14      9.64      7.55         7.55
  1423                        4.69      4.69      6.52      0.01         0.01
  1424                        9.64      9.64     14.38      7.49         7.49
  1425                       14.38     14.38     22.45     12.08        12.08
  1428                        6.82      6.82     93.16      0.01         0.01
  1430                       23.69     23.69     23.96     23.69        23.64
  1431                       22.78     23.96     22.78     24.11        22.78
  1458                        0.01     11.19      0.01      5.09         0.01
  1459                        8.13      8.13     11.07      6.17         6.16
  1460                        7.45      7.45      8.13      1.25         1.25
  1461                        6.90      6.90      7.45      0.01         0.01
  1462                        6.73      6.73      6.90      0.01         0.01
  1463                        6.73      8.70      6.73     10.09         6.73
  1464                        8.67      9.83      8.70      9.44         8.67
  1465                        6.56      6.56      9.83      4.31         4.31
  1466                        5.92      5.92      6.56      0.01         0.01
  1467                        4.89      4.89      5.92      0.01         0.01
  1468                        4.76      5.00      4.89      4.81         4.64
  1469                        2.34      2.34      5.00      0.01         0.01
  1470                        0.01      0.01      2.34      0.01         0.01
  1471                        0.01      2.33      0.01      1.58         0.01
  1630                        6.42      6.42     15.10      0.01         0.01
  1631                        0.01      0.01      4.29      0.01         0.01
  1632                        0.01      1.22      0.01      0.01         0.01
  1633                        1.22      3.74      1.22      3.80         1.22
  1634                        3.72      3.72      3.74      3.83         3.69
  1635                        2.49      2.49      3.64      1.71         1.72
  1636                        1.99      1.99      2.49      0.98         0.98
  1637                        1.90      1.90      1.99      0.01         0.01
  1638                        0.68      0.68      1.90      0.01         0.01
  1639                        0.01      0.01      0.68      0.01         0.01
  1641                        0.72      0.72      2.13      0.68         0.68
  1642                        0.61      0.61      0.72      0.48         0.48
  1643                        0.01      0.01      0.61      0.01         0.01
  1646                        0.01      0.84      0.01      0.72         0.01
  1647                        0.77      0.77      0.84      0.74         0.72
  1648                       15.10     15.10     22.52      0.01         0.01
  1649                        4.77      4.77     15.98      0.02         0.01
  1650                        4.77      6.23      4.77      2.74         1.12
  1651                        5.75      5.75      6.23      1.02         0.59
  1652                        5.65      5.65      5.75      0.84         0.39
  1653                        5.36      5.36      5.65      0.22         0.01
  1669                       23.28     23.28     23.41     23.12        23.11
  1670                       23.28     23.96     23.28     23.87        23.28
  1671                       22.90     22.90     23.96      0.01         0.01
  1672                       22.75     22.75     22.90      7.96         7.97
  1673                       22.47     22.47     22.75      7.90         7.90
  1674                        0.90      0.90     22.47      0.01         0.01
  1675                        0.86      0.87      0.90      0.92         0.84
  1676                        0.01      0.01      0.87      0.01         0.01
  1677                       23.47     23.47     23.96      0.01         0.01
  1678                       23.15     23.15     23.40      0.01         0.01
  1679                       23.04     23.04     23.15      0.01         0.01
  1801                        1.22      1.22      1.48      0.01         0.01
  1802                        1.62      1.62      1.87      0.01         0.01
  1803                        1.87      1.87      2.35      0.72         0.72
  1804                        2.35     24.62      2.35     24.49         2.35
  1805                       24.00     24.00     24.62      0.01         0.01
  1806                       23.04     23.04     24.00      0.69         0.68
  1807                       23.02     23.70     23.02     23.80        23.02
  1808                       23.62     23.85     23.62     19.30        19.00
  1809                        2.35      2.35     11.96      0.44         0.44
  1810                       11.96     11.96     23.69      0.01         0.01
  1814                        0.01      0.27      0.01      0.16         0.01
  1816                        0.01      0.01      8.33      0.01         0.01
  1820                        0.80      1.61      0.80      1.36         0.80
  1821                        0.80      0.80      1.13      0.01         0.01
  1822                        1.13      1.13      1.58      0.01         0.01
  1823                        1.15      1.15      1.61      0.01         0.01
  1824                        0.01      0.01      1.15      0.01         0.01
  1826                        1.39      1.39      1.43      0.91         0.90
  1827                        1.43      1.43     13.16      0.01         0.01
  1828                       13.16     13.16     19.82      4.61         4.61
  1829                       19.82     19.82     22.35      6.85         6.85
  1863                        2.33      2.70      2.33      2.79         2.33
  1864                        1.99      1.99      2.70      1.50         1.51
  1865                        1.78      1.78      1.99      0.01         0.01
  1866                        5.36     20.85      5.36     14.10         5.36
  2021                        0.01      0.01     94.99      0.01         0.01
  2150                       23.62     23.62     23.70     23.61        23.57
  2172                        0.01      0.01      2.82      0.01         0.01
  2173                        2.95      2.95      5.28      0.01         0.01
  2174                        5.50      5.50     20.20      0.01         0.01
  2175                       22.55     22.55     23.53      0.01         0.01
  2176                       23.55     23.55     23.63      3.18         3.18
  2177                       23.65     23.65     23.74      2.03         2.03
  2178                       23.75     23.75     23.83      1.87         1.87
  2184                       23.83     23.83     23.88     23.88        23.83
  2187                       95.00     95.00     95.00      0.06         0.08
  2188                        2.39      2.39      3.55      0.01         0.01
  2189                       23.73     23.73     23.79      0.22         0.03
  397                        23.83     24.88     23.83     24.68        23.83
  398                        24.84     24.84     24.88     24.81        24.79
  399                        24.57     24.57     24.84     18.30         0.01
  400                        24.05     24.05     24.57      0.01         0.01
  401                        23.81     23.81     24.05      0.01         0.01
  402                        23.78     23.79     23.81     23.42        23.40
  403                        23.62     23.63     23.73      0.05         0.03
  404                        23.42     23.42     23.63     22.52        22.52
  405                         4.51      4.51     23.42      0.01         0.01
  406                         3.76      3.76      4.51      1.82         1.82
  407                         3.76     22.75      3.76     21.44         2.56
  408                         3.55      3.55     22.77      0.01         0.01
  409                         3.55     23.16      3.55     23.05         3.55
  410                        23.08     23.09     23.16     23.07        23.04
  411                         0.01      0.01     23.09      0.01         0.01
  412                        22.29     22.29     93.58      0.01         0.01
  413                         0.01      0.01     22.29      0.01         0.01
  414                        22.58     22.92     22.58     22.99        22.58
  415                        23.07     23.41     23.07     23.49        23.07
  CDT-11                      0.01      9.29      0.01      0.01         0.01
  
  
  ***************
  Pumping Summary
  ***************
  
  ---------------------------------------------------------------------------------------------------------
                                                  Min       Avg       Max     Total     Power    % Time Off
                        Percent   Number of      Flow      Flow      Flow    Volume     Usage    Pump Curve
  Pump                 Utilized   Start-Ups       GPM       GPM       GPM  10^6 gal     Kw-hr    Low   High
  ---------------------------------------------------------------------------------------------------------
  CAMERON_PS1              0.17           1      0.00    194.06    400.00     0.002      0.11    0.0    1.2
  CAMERON_PS2              0.07           1      0.00    211.11    400.00     0.001      0.04    0.0    3.0
  CAMPUS_PS1               0.01           1      0.00    640.00    640.00     0.001      0.01    0.0  100.0
  CAMPUS_PS2               0.05           1      0.00    477.39    640.00     0.001      0.20    0.0   43.4
  

  Analysis begun on:  Fri Nov 29 13:19:46 2019
  Analysis ended on:  Fri Nov 29 13:19:59 2019
  Total elapsed time: 00:00:13