
  EPA STORM WATER MANAGEMENT MODEL - VERSION 5.1 (Build 5.1.013)
  --------------------------------------------------------------

  WARNING 02: maximum depth increased for Node 447
  WARNING 02: maximum depth increased for Node 460
  
  **********************           Volume        Volume
  Rainfall Dependent I/I        acre-feet      10^6 gal
  **********************        ---------     ---------
  Sewershed Rainfall ......        44.552        14.518
  RDII Produced ...........         1.627         0.530
  RDII Ratio ..............         0.037
  
  
  *********************************************************
  NOTE: The summary statistics displayed in this report are
  based on results found at every computational time step,  
  not just on results from each reporting time step.
  *********************************************************
  
  ****************
  Analysis Options
  ****************
  Flow Units ............... GPM
  Process Models:
    Rainfall/Runoff ........ YES
    RDII ................... YES
    Snowmelt ............... NO
    Groundwater ............ NO
    Flow Routing ........... YES
    Ponding Allowed ........ YES
    Water Quality .......... NO
  Infiltration Method ...... HORTON
  Flow Routing Method ...... DYNWAVE
  Surcharge Method ......... EXTRAN
  Starting Date ............ 06/18/2012 00:00:00
  Ending Date .............. 06/21/2012 23:00:00
  Antecedent Dry Days ...... 2.0
  Report Time Step ......... 00:05:00
  Wet Time Step ............ 00:15:00
  Dry Time Step ............ 01:00:00
  Routing Time Step ........ 10.00 sec
  Variable Time Step ....... YES
  Maximum Trials ........... 8
  Number of Threads ........ 1
  Head Tolerance ........... 0.000010 ft
  
  
  **************************        Volume         Depth
  Runoff Quantity Continuity     acre-feet        inches
  **************************     ---------       -------
  Total Precipitation ......         0.000         0.000
  Evaporation Loss .........         0.000         0.000
  Infiltration Loss ........         0.000         0.000
  Surface Runoff ...........         0.000         0.000
  Final Storage ............         0.000         0.000
  Continuity Error (%) .....         0.000
  
  
  **************************        Volume        Volume
  Flow Routing Continuity        acre-feet      10^6 gal
  **************************     ---------     ---------
  Dry Weather Inflow .......         0.000         0.000
  Wet Weather Inflow .......         0.000         0.000
  Groundwater Inflow .......         0.000         0.000
  RDII Inflow ..............         0.000         0.000
  External Inflow ..........         0.000         0.000
  External Outflow .........         0.000         0.000
  Flooding Loss ............         0.000         0.000
  Evaporation Loss .........         0.000         0.000
  Exfiltration Loss ........         0.000         0.000
  Initial Stored Volume ....         0.006         0.002
  Final Stored Volume ......         0.006         0.002
  Continuity Error (%) .....         0.000
  
  
  ***************************
  Time-Step Critical Elements
  ***************************
  None
  
  
  ********************************
  Highest Flow Instability Indexes
  ********************************
  All links are stable.
  
  
  ***************************
  Subcatchment Runoff Summary
  ***************************
  
  ------------------------------------------------------------------------------------------------------------------------------
                            Total      Total      Total      Total     Imperv       Perv      Total       Total     Peak  Runoff
                           Precip      Runon       Evap      Infil     Runoff     Runoff     Runoff      Runoff   Runoff   Coeff
  Subcatchment                 in         in         in         in         in         in         in    10^6 gal      GPM
  ------------------------------------------------------------------------------------------------------------------------------
  SUB-3654                   0.00       0.00       0.00       0.00       0.00       0.00       0.00        0.00     0.00   0.000
  SUB-3656                   0.00       0.00       0.00       0.00       0.00       0.00       0.00        0.00     0.00   0.000
  SUB-3658                   0.00       0.00       0.00       0.00       0.00       0.00       0.00        0.00     0.00   0.000
  SUB-3660                   0.00       0.00       0.00       0.00       0.00       0.00       0.00        0.00     0.00   0.000
  SUB-3662                   0.00       0.00       0.00       0.00       0.00       0.00       0.00        0.00     0.00   0.000
  SUB-3664                   0.00       0.00       0.00       0.00       0.00       0.00       0.00        0.00     0.00   0.000
  SUB-3666                   0.00       0.00       0.00       0.00       0.00       0.00       0.00        0.00     0.00   0.000
  SUB-3668                   0.00       0.00       0.00       0.00       0.00       0.00       0.00        0.00     0.00   0.000
  SUB-3670                   0.00       0.00       0.00       0.00       0.00       0.00       0.00        0.00     0.00   0.000
  SUB-3672                   0.00       0.00       0.00       0.00       0.00       0.00       0.00        0.00     0.00   0.000
  SUB-3674                   0.00       0.00       0.00       0.00       0.00       0.00       0.00        0.00     0.00   0.000
  SUB-3676                   0.00       0.00       0.00       0.00       0.00       0.00       0.00        0.00     0.00   0.000
  SUB-3678                   0.00       0.00       0.00       0.00       0.00       0.00       0.00        0.00     0.00   0.000
  SUB-3680                   0.00       0.00       0.00       0.00       0.00       0.00       0.00        0.00     0.00   0.000
  SUB-3684                   0.00       0.00       0.00       0.00       0.00       0.00       0.00        0.00     0.00   0.000
  SUB-3686                   0.00       0.00       0.00       0.00       0.00       0.00       0.00        0.00     0.00   0.000
  SUB-3688                   0.00       0.00       0.00       0.00       0.00       0.00       0.00        0.00     0.00   0.000
  SUB-3690                   0.00       0.00       0.00       0.00       0.00       0.00       0.00        0.00     0.00   0.000
  SUB-3694                   0.00       0.00       0.00       0.00       0.00       0.00       0.00        0.00     0.00   0.000
  SUB-3696                   0.00       0.00       0.00       0.00       0.00       0.00       0.00        0.00     0.00   0.000
  SUB-3698                   0.00       0.00       0.00       0.00       0.00       0.00       0.00        0.00     0.00   0.000
  SUB-3700                   0.00       0.00       0.00       0.00       0.00       0.00       0.00        0.00     0.00   0.000
  SUB-3702                   0.00       0.00       0.00       0.00       0.00       0.00       0.00        0.00     0.00   0.000
  SUB-3704                   0.00       0.00       0.00       0.00       0.00       0.00       0.00        0.00     0.00   0.000
  SUB-3706                   0.00       0.00       0.00       0.00       0.00       0.00       0.00        0.00     0.00   0.000
  SUB-3708                   0.00       0.00       0.00       0.00       0.00       0.00       0.00        0.00     0.00   0.000
  SUB-3710                   0.00       0.00       0.00       0.00       0.00       0.00       0.00        0.00     0.00   0.000
  SUB-3712                   0.00       0.00       0.00       0.00       0.00       0.00       0.00        0.00     0.00   0.000
  SUB-3714                   0.00       0.00       0.00       0.00       0.00       0.00       0.00        0.00     0.00   0.000
  SUB-3716                   0.00       0.00       0.00       0.00       0.00       0.00       0.00        0.00     0.00   0.000
  SUB-3718                   0.00       0.00       0.00       0.00       0.00       0.00       0.00        0.00     0.00   0.000
  SUB-3720                   0.00       0.00       0.00       0.00       0.00       0.00       0.00        0.00     0.00   0.000
  SUB-3722                   0.00       0.00       0.00       0.00       0.00       0.00       0.00        0.00     0.00   0.000
  SUB-3724                   0.00       0.00       0.00       0.00       0.00       0.00       0.00        0.00     0.00   0.000
  SUB-3726                   0.00       0.00       0.00       0.00       0.00       0.00       0.00        0.00     0.00   0.000
  SUB-3728                   0.00       0.00       0.00       0.00       0.00       0.00       0.00        0.00     0.00   0.000
  SUB-3730                   0.00       0.00       0.00       0.00       0.00       0.00       0.00        0.00     0.00   0.000
  SUB-3732                   0.00       0.00       0.00       0.00       0.00       0.00       0.00        0.00     0.00   0.000
  SUB-3734                   0.00       0.00       0.00       0.00       0.00       0.00       0.00        0.00     0.00   0.000
  SUB-3736                   0.00       0.00       0.00       0.00       0.00       0.00       0.00        0.00     0.00   0.000
  SUB-3738                   0.00       0.00       0.00       0.00       0.00       0.00       0.00        0.00     0.00   0.000
  SUB-3740                   0.00       0.00       0.00       0.00       0.00       0.00       0.00        0.00     0.00   0.000
  SUB-3742                   0.00       0.00       0.00       0.00       0.00       0.00       0.00        0.00     0.00   0.000
  SUB-3744                   0.00       0.00       0.00       0.00       0.00       0.00       0.00        0.00     0.00   0.000
  SUB-3746                   0.00       0.00       0.00       0.00       0.00       0.00       0.00        0.00     0.00   0.000
  SUB-3748                   0.00       0.00       0.00       0.00       0.00       0.00       0.00        0.00     0.00   0.000
  SUB-3750                   0.00       0.00       0.00       0.00       0.00       0.00       0.00        0.00     0.00   0.000
  SUB-3752                   0.00       0.00       0.00       0.00       0.00       0.00       0.00        0.00     0.00   0.000
  SUB-3754                   0.00       0.00       0.00       0.00       0.00       0.00       0.00        0.00     0.00   0.000
  SUB-3756                   0.00       0.00       0.00       0.00       0.00       0.00       0.00        0.00     0.00   0.000
  SUB-3758                   0.00       0.00       0.00       0.00       0.00       0.00       0.00        0.00     0.00   0.000
  SUB-3760                   0.00       0.00       0.00       0.00       0.00       0.00       0.00        0.00     0.00   0.000
  SUB-3762                   0.00       0.00       0.00       0.00       0.00       0.00       0.00        0.00     0.00   0.000
  SUB-3764                   0.00       0.00       0.00       0.00       0.00       0.00       0.00        0.00     0.00   0.000
  SUB-3766                   0.00       0.00       0.00       0.00       0.00       0.00       0.00        0.00     0.00   0.000
  SUB-3768                   0.00       0.00       0.00       0.00       0.00       0.00       0.00        0.00     0.00   0.000
  SUB-3770                   0.00       0.00       0.00       0.00       0.00       0.00       0.00        0.00     0.00   0.000
  SUB-3772                   0.00       0.00       0.00       0.00       0.00       0.00       0.00        0.00     0.00   0.000
  SUB-3774                   0.00       0.00       0.00       0.00       0.00       0.00       0.00        0.00     0.00   0.000
  SUB-3776                   0.00       0.00       0.00       0.00       0.00       0.00       0.00        0.00     0.00   0.000
  SUB-3778                   0.00       0.00       0.00       0.00       0.00       0.00       0.00        0.00     0.00   0.000
  SUB-3780                   0.00       0.00       0.00       0.00       0.00       0.00       0.00        0.00     0.00   0.000
  SUB-3782                   0.00       0.00       0.00       0.00       0.00       0.00       0.00        0.00     0.00   0.000
  SUB-3784                   0.00       0.00       0.00       0.00       0.00       0.00       0.00        0.00     0.00   0.000
  SUB-3786                   0.00       0.00       0.00       0.00       0.00       0.00       0.00        0.00     0.00   0.000
  SUB-3788                   0.00       0.00       0.00       0.00       0.00       0.00       0.00        0.00     0.00   0.000
  SUB-3790                   0.00       0.00       0.00       0.00       0.00       0.00       0.00        0.00     0.00   0.000
  SUB-3792                   0.00       0.00       0.00       0.00       0.00       0.00       0.00        0.00     0.00   0.000
  SUB-3794                   0.00       0.00       0.00       0.00       0.00       0.00       0.00        0.00     0.00   0.000
  SUB-3796                   0.00       0.00       0.00       0.00       0.00       0.00       0.00        0.00     0.00   0.000
  SUB-3798                   0.00       0.00       0.00       0.00       0.00       0.00       0.00        0.00     0.00   0.000
  SUB-3800                   0.00       0.00       0.00       0.00       0.00       0.00       0.00        0.00     0.00   0.000
  SUB-3802                   0.00       0.00       0.00       0.00       0.00       0.00       0.00        0.00     0.00   0.000
  SUB-3804                   0.00       0.00       0.00       0.00       0.00       0.00       0.00        0.00     0.00   0.000
  SUB-3806                   0.00       0.00       0.00       0.00       0.00       0.00       0.00        0.00     0.00   0.000
  SUB-3808                   0.00       0.00       0.00       0.00       0.00       0.00       0.00        0.00     0.00   0.000
  SUB-3810                   0.00       0.00       0.00       0.00       0.00       0.00       0.00        0.00     0.00   0.000
  SUB-3812                   0.00       0.00       0.00       0.00       0.00       0.00       0.00        0.00     0.00   0.000
  SUB-3814                   0.00       0.00       0.00       0.00       0.00       0.00       0.00        0.00     0.00   0.000
  SUB-3816                   0.00       0.00       0.00       0.00       0.00       0.00       0.00        0.00     0.00   0.000
  SUB-3818                   0.00       0.00       0.00       0.00       0.00       0.00       0.00        0.00     0.00   0.000
  SUB-3820                   0.00       0.00       0.00       0.00       0.00       0.00       0.00        0.00     0.00   0.000
  SUB-3822                   0.00       0.00       0.00       0.00       0.00       0.00       0.00        0.00     0.00   0.000
  SUB-3824                   0.00       0.00       0.00       0.00       0.00       0.00       0.00        0.00     0.00   0.000
  SUB-3826                   0.00       0.00       0.00       0.00       0.00       0.00       0.00        0.00     0.00   0.000
  SUB-3828                   0.00       0.00       0.00       0.00       0.00       0.00       0.00        0.00     0.00   0.000
  SUB-3830                   0.00       0.00       0.00       0.00       0.00       0.00       0.00        0.00     0.00   0.000
  SUB-3832                   0.00       0.00       0.00       0.00       0.00       0.00       0.00        0.00     0.00   0.000
  SUB-3834                   0.00       0.00       0.00       0.00       0.00       0.00       0.00        0.00     0.00   0.000
  SUB-3836                   0.00       0.00       0.00       0.00       0.00       0.00       0.00        0.00     0.00   0.000
  SUB-3838                   0.00       0.00       0.00       0.00       0.00       0.00       0.00        0.00     0.00   0.000
  SUB-3840                   0.00       0.00       0.00       0.00       0.00       0.00       0.00        0.00     0.00   0.000
  SUB-3842                   0.00       0.00       0.00       0.00       0.00       0.00       0.00        0.00     0.00   0.000
  SUB-3844                   0.00       0.00       0.00       0.00       0.00       0.00       0.00        0.00     0.00   0.000
  SUB-3846                   0.00       0.00       0.00       0.00       0.00       0.00       0.00        0.00     0.00   0.000
  SUB-3848                   0.00       0.00       0.00       0.00       0.00       0.00       0.00        0.00     0.00   0.000
  SUB-3850                   0.00       0.00       0.00       0.00       0.00       0.00       0.00        0.00     0.00   0.000
  SUB-3852                   0.00       0.00       0.00       0.00       0.00       0.00       0.00        0.00     0.00   0.000
  SUB-3854                   0.00       0.00       0.00       0.00       0.00       0.00       0.00        0.00     0.00   0.000
  SUB-3856                   0.00       0.00       0.00       0.00       0.00       0.00       0.00        0.00     0.00   0.000
  SUB-3858                   0.00       0.00       0.00       0.00       0.00       0.00       0.00        0.00     0.00   0.000
  SUB-3860                   0.00       0.00       0.00       0.00       0.00       0.00       0.00        0.00     0.00   0.000
  SUB-3862                   0.00       0.00       0.00       0.00       0.00       0.00       0.00        0.00     0.00   0.000
  SUB-3864                   0.00       0.00       0.00       0.00       0.00       0.00       0.00        0.00     0.00   0.000
  SUB-3866                   0.00       0.00       0.00       0.00       0.00       0.00       0.00        0.00     0.00   0.000
  SUB-3868                   0.00       0.00       0.00       0.00       0.00       0.00       0.00        0.00     0.00   0.000
  SUB-3870                   0.00       0.00       0.00       0.00       0.00       0.00       0.00        0.00     0.00   0.000
  SUB-3872                   0.00       0.00       0.00       0.00       0.00       0.00       0.00        0.00     0.00   0.000
  SUB-3874                   0.00       0.00       0.00       0.00       0.00       0.00       0.00        0.00     0.00   0.000
  SUB-3876                   0.00       0.00       0.00       0.00       0.00       0.00       0.00        0.00     0.00   0.000
  SUB-3878                   0.00       0.00       0.00       0.00       0.00       0.00       0.00        0.00     0.00   0.000
  SUB-3880                   0.00       0.00       0.00       0.00       0.00       0.00       0.00        0.00     0.00   0.000
  SUB-3882                   0.00       0.00       0.00       0.00       0.00       0.00       0.00        0.00     0.00   0.000
  SUB-3884                   0.00       0.00       0.00       0.00       0.00       0.00       0.00        0.00     0.00   0.000
  SUB-3886                   0.00       0.00       0.00       0.00       0.00       0.00       0.00        0.00     0.00   0.000
  SUB-3888                   0.00       0.00       0.00       0.00       0.00       0.00       0.00        0.00     0.00   0.000
  
  
  ******************
  Node Depth Summary
  ******************
  
  ---------------------------------------------------------------------------------
                                 Average  Maximum  Maximum  Time of Max    Reported
                                   Depth    Depth      HGL   Occurrence   Max Depth
  Node                 Type         Feet     Feet     Feet  days hr:min        Feet
  ---------------------------------------------------------------------------------
  1078                 JUNCTION  -nan(ind)     0.00   886.10     0  00:00        0.00
  1079                 JUNCTION  -nan(ind)     0.00   903.17     0  00:00        0.00
  1080                 JUNCTION  -nan(ind)     0.00   913.75     0  00:00        0.00
  1081                 JUNCTION  -nan(ind)     0.00   925.22     0  00:00        0.00
  1082                 JUNCTION  -nan(ind)     0.00   936.23     0  00:00        0.00
  1083                 JUNCTION  -nan(ind)     0.00   946.23     0  00:00        0.00
  1084                 JUNCTION  -nan(ind)     0.00   975.90     0  00:00        0.00
  1085                 JUNCTION  -nan(ind)     0.00   990.18     0  00:00        0.00
  1086                 JUNCTION  -nan(ind)     0.00   894.40     0  00:00        0.00
  1087                 JUNCTION  -nan(ind)     0.00   904.90     0  00:00        0.00
  1088                 JUNCTION  -nan(ind)     0.00   919.15     0  00:00        0.00
  1089                 JUNCTION  -nan(ind)     0.00   924.18     0  00:00        0.00
  1090                 JUNCTION  -nan(ind)     0.00   935.18     0  00:00        0.00
  1091                 JUNCTION  -nan(ind)     0.00   947.66     0  00:00        0.00
  1092                 JUNCTION  -nan(ind)     0.00   940.85     0  00:00        0.00
  1093                 JUNCTION  -nan(ind)     0.00   936.45     0  00:00        0.00
  1094                 JUNCTION  -nan(ind)     0.00   896.96     0  00:00        0.00
  1095                 JUNCTION  -nan(ind)     0.00   905.04     0  00:00        0.00
  1096                 JUNCTION  -nan(ind)     0.00   917.84     0  00:00        0.00
  1097                 JUNCTION  -nan(ind)     0.00   903.90     0  00:00        0.00
  1098                 JUNCTION  -nan(ind)     0.00   910.90     0  00:00        0.00
  1099                 JUNCTION  -nan(ind)     0.00   921.45     0  00:00        0.00
  1124                 JUNCTION  -nan(ind)     0.00   947.00     0  00:00        0.00
  1125                 JUNCTION  -nan(ind)     0.00   945.00     0  00:00        0.00
  1126                 JUNCTION  -nan(ind)     0.00   940.50     0  00:00        0.00
  1127                 JUNCTION  -nan(ind)     0.00   937.60     0  00:00        0.00
  1128                 JUNCTION  -nan(ind)     0.00   937.94     0  00:00        0.00
  1129                 JUNCTION  -nan(ind)     0.00   938.54     0  00:00        0.00
  1130                 JUNCTION  -nan(ind)     0.00   947.00     0  00:00        0.00
  1131                 JUNCTION  -nan(ind)     0.00   949.00     0  00:00        0.00
  1132                 JUNCTION  -nan(ind)     0.00   969.00     0  00:00        0.00
  1133                 JUNCTION  -nan(ind)     0.00   986.00     0  00:00        0.00
  1134                 JUNCTION  -nan(ind)     0.00   999.00     0  00:00        0.00
  1135                 JUNCTION  -nan(ind)     0.00   941.00     0  00:00        0.00
  1136                 JUNCTION  -nan(ind)     0.00   939.14     0  00:00        0.00
  1137                 JUNCTION  -nan(ind)     0.00   938.74     0  00:00        0.00
  1138                 JUNCTION  -nan(ind)     0.00   938.34     0  00:00        0.00
  1139                 JUNCTION  -nan(ind)     0.00  1031.00     0  00:00        0.00
  1140                 JUNCTION  -nan(ind)     0.00  1036.00     0  00:00        0.00
  1141                 JUNCTION  -nan(ind)     0.00  1039.00     0  00:00        0.00
  1142                 JUNCTION  -nan(ind)     0.00  1039.00     0  00:00        0.00
  1143                 JUNCTION  -nan(ind)     0.00  1037.00     0  00:00        0.00
  1144                 JUNCTION  -nan(ind)     0.00   990.00     0  00:00        0.00
  1145                 JUNCTION  -nan(ind)     0.00  1038.00     0  00:00        0.00
  1146                 JUNCTION  -nan(ind)     0.00  1058.00     0  00:00        0.00
  1147                 JUNCTION  -nan(ind)     0.00  1084.00     0  00:00        0.00
  1148                 JUNCTION  -nan(ind)     0.00   984.00     0  00:00        0.00
  1149                 JUNCTION  -nan(ind)     0.00   982.90     0  00:00        0.00
  1150                 JUNCTION  -nan(ind)     0.00   981.50     0  00:00        0.00
  1151                 JUNCTION  -nan(ind)     0.00   980.00     0  00:00        0.00
  1152                 JUNCTION  -nan(ind)     0.00   986.00     0  00:00        0.00
  1153                 JUNCTION  -nan(ind)     0.00   945.18     0  00:00        0.00
  1154                 JUNCTION  -nan(ind)     0.00   946.09     0  00:00        0.00
  1155                 JUNCTION  -nan(ind)     0.00   957.00     0  00:00        0.00
  1156                 JUNCTION  -nan(ind)     0.00   964.00     0  00:00        0.00
  1157                 JUNCTION  -nan(ind)     0.00   987.00     0  00:00        0.00
  1158                 JUNCTION  -nan(ind)     0.00  1017.00     0  00:00        0.00
  1159                 JUNCTION  -nan(ind)     0.00  1045.00     0  00:00        0.00
  1160                 JUNCTION  -nan(ind)     0.00  1059.00     0  00:00        0.00
  1161                 JUNCTION  -nan(ind)     0.00  1080.50     0  00:00        0.00
  1163                 JUNCTION  -nan(ind)     0.00  1109.00     0  00:00        0.00
  1164                 JUNCTION  -nan(ind)     0.00  1124.00     0  00:00        0.00
  1165                 JUNCTION  -nan(ind)     0.00  1144.50     0  00:00        0.00
  1166                 JUNCTION  -nan(ind)     0.00  1168.00     0  00:00        0.00
  1167                 JUNCTION  -nan(ind)     0.00   948.00     0  00:00        0.00
  1168                 JUNCTION  -nan(ind)     0.00   955.00     0  00:00        0.00
  1169                 JUNCTION  -nan(ind)     0.00  1065.00     0  00:00        0.00
  1170                 JUNCTION  -nan(ind)     0.00  1063.00     0  00:00        0.00
  1171                 JUNCTION  -nan(ind)     0.00  1057.00     0  00:00        0.00
  1172                 JUNCTION  -nan(ind)     0.00  1055.00     0  00:00        0.00
  1173                 JUNCTION  -nan(ind)     0.00  1064.00     0  00:00        0.00
  1174                 JUNCTION  -nan(ind)     0.00  1082.00     0  00:00        0.00
  1175                 JUNCTION  -nan(ind)     0.00  1090.00     0  00:00        0.00
  1176                 JUNCTION  -nan(ind)     0.00  1099.00     0  00:00        0.00
  1177                 JUNCTION  -nan(ind)     0.00  1109.00     0  00:00        0.00
  1178                 JUNCTION  -nan(ind)     0.00  1130.00     0  00:00        0.00
  1179                 JUNCTION  -nan(ind)     0.00  1139.00     0  00:00        0.00
  1180                 JUNCTION  -nan(ind)     0.00  1148.00     0  00:00        0.00
  1181                 JUNCTION  -nan(ind)     0.00  1155.00     0  00:00        0.00
  1182                 JUNCTION  -nan(ind)     0.00  1058.00     0  00:00        0.00
  1183                 JUNCTION  -nan(ind)     0.00  1053.00     0  00:00        0.00
  1184                 JUNCTION  -nan(ind)     0.00  1048.00     0  00:00        0.00
  1185                 JUNCTION  -nan(ind)     0.00  1036.00     0  00:00        0.00
  1186                 JUNCTION  -nan(ind)     0.00  1028.00     0  00:00        0.00
  1187                 JUNCTION  -nan(ind)     0.00  1020.46     0  00:00        0.00
  1188                 JUNCTION  -nan(ind)     0.00   988.00     0  00:00        0.00
  1189                 JUNCTION  -nan(ind)     0.00   986.80     0  00:00        0.00
  1329                 JUNCTION  -nan(ind)     0.00  1221.00     0  00:00        0.00
  1330                 JUNCTION  -nan(ind)     0.00  1219.00     0  00:00        0.00
  1331                 JUNCTION  -nan(ind)     0.00  1207.00     0  00:00        0.00
  1332                 JUNCTION  -nan(ind)     0.00  1203.00     0  00:00        0.00
  1333                 JUNCTION  -nan(ind)     0.00  1201.00     0  00:00        0.00
  1334                 JUNCTION  -nan(ind)     0.00  1200.00     0  00:00        0.00
  1335                 JUNCTION  -nan(ind)     0.00  1205.00     0  00:00        0.00
  1336                 JUNCTION  -nan(ind)     0.00  1264.00     0  00:00        0.00
  1337                 JUNCTION  -nan(ind)     0.00  1261.00     0  00:00        0.00
  1338                 JUNCTION  -nan(ind)     0.00  1258.50     0  00:00        0.00
  1339                 JUNCTION  -nan(ind)     0.00  1248.00     0  00:00        0.00
  1340                 JUNCTION  -nan(ind)     0.00  1230.00     0  00:00        0.00
  1341                 JUNCTION  -nan(ind)     0.00  1229.30     0  00:00        0.00
  1342                 JUNCTION  -nan(ind)     0.00  1228.30     0  00:00        0.00
  1343                 JUNCTION  -nan(ind)     0.00  1227.00     0  00:00        0.00
  1344                 JUNCTION  -nan(ind)     0.00  1220.00     0  00:00        0.00
  1345                 JUNCTION  -nan(ind)     0.00  1202.00     0  00:00        0.00
  1346                 JUNCTION  -nan(ind)     0.00  1166.00     0  00:00        0.00
  1347                 JUNCTION  -nan(ind)     0.00  1148.00     0  00:00        0.00
  1348                 JUNCTION  -nan(ind)     0.00  1141.00     0  00:00        0.00
  1349                 JUNCTION  -nan(ind)     0.00  1139.00     0  00:00        0.00
  1350                 JUNCTION  -nan(ind)     0.00  1138.74     0  00:00        0.00
  1351                 JUNCTION  -nan(ind)     0.00  1138.00     0  00:00        0.00
  1352                 JUNCTION  -nan(ind)     0.00  1122.00     0  00:00        0.00
  1353                 JUNCTION  -nan(ind)     0.00  1122.50     0  00:00        0.00
  1354                 JUNCTION  -nan(ind)     0.00  1123.50     0  00:00        0.00
  1355                 JUNCTION  -nan(ind)     0.00  1125.00     0  00:00        0.00
  1356                 JUNCTION  -nan(ind)     0.00  1334.00     0  00:00        0.00
  1357                 JUNCTION  -nan(ind)     0.00  1337.00     0  00:00        0.00
  1358                 JUNCTION  -nan(ind)     0.00  1343.00     0  00:00        0.00
  1359                 JUNCTION  -nan(ind)     0.00  1241.50     0  00:00        0.00
  1360                 JUNCTION  -nan(ind)     0.00  1233.00     0  00:00        0.00
  1361                 JUNCTION  -nan(ind)     0.00  1193.00     0  00:00        0.00
  1362                 JUNCTION  -nan(ind)     0.00  1193.00     0  00:00        0.00
  1363                 JUNCTION  -nan(ind)     0.00  1166.50     0  00:00        0.00
  1364                 JUNCTION  -nan(ind)     0.00  1137.00     0  00:00        0.00
  1365                 JUNCTION  -nan(ind)     0.00  1114.00     0  00:00        0.00
  1366                 JUNCTION  -nan(ind)     0.00  1107.00     0  00:00        0.00
  1367                 JUNCTION  -nan(ind)     0.00  1261.00     0  00:00        0.00
  1368                 JUNCTION  -nan(ind)     0.00  1278.00     0  00:00        0.00
  1369                 JUNCTION  -nan(ind)     0.00  1288.00     0  00:00        0.00
  1370                 JUNCTION  -nan(ind)     0.00  1295.00     0  00:00        0.00
  1371                 JUNCTION  -nan(ind)     0.00  1291.50     0  00:00        0.00
  1372                 JUNCTION  -nan(ind)     0.00  1296.00     0  00:00        0.00
  1373                 JUNCTION  -nan(ind)     0.00  1300.50     0  00:00        0.00
  1374                 JUNCTION  -nan(ind)     0.00  1312.50     0  00:00        0.00
  1375                 JUNCTION  -nan(ind)     0.00  1238.50     0  00:00        0.00
  1376                 JUNCTION  -nan(ind)     0.00  1250.00     0  00:00        0.00
  1377                 JUNCTION  -nan(ind)     0.00  1264.00     0  00:00        0.00
  1378                 JUNCTION  -nan(ind)     0.00  1243.00     0  00:00        0.00
  1379                 JUNCTION  -nan(ind)     0.00  1251.00     0  00:00        0.00
  1380                 JUNCTION  -nan(ind)     0.00  1262.00     0  00:00        0.00
  1381                 JUNCTION  -nan(ind)     0.00  1277.50     0  00:00        0.00
  1382                 JUNCTION  -nan(ind)     0.00  1297.00     0  00:00        0.00
  1383                 JUNCTION  -nan(ind)     0.00  1307.00     0  00:00        0.00
  1384                 JUNCTION  -nan(ind)     0.00  1348.00     0  00:00        0.00
  1385                 JUNCTION  -nan(ind)     0.00  1305.00     0  00:00        0.00
  1386                 JUNCTION  -nan(ind)     0.00  1298.00     0  00:00        0.00
  1387                 JUNCTION  -nan(ind)     0.00  1297.00     0  00:00        0.00
  1388                 JUNCTION  -nan(ind)     0.00  1343.00     0  00:00        0.00
  1389                 JUNCTION  -nan(ind)     0.00  1340.50     0  00:00        0.00
  1390                 JUNCTION  -nan(ind)     0.00  1331.00     0  00:00        0.00
  1391                 JUNCTION  -nan(ind)     0.00  1173.00     0  00:00        0.00
  1392                 JUNCTION  -nan(ind)     0.00  1192.00     0  00:00        0.00
  1393                 JUNCTION  -nan(ind)     0.00  1204.00     0  00:00        0.00
  1394                 JUNCTION  -nan(ind)     0.00  1234.00     0  00:00        0.00
  1395                 JUNCTION  -nan(ind)     0.00  1256.00     0  00:00        0.00
  1396                 JUNCTION  -nan(ind)     0.00  1108.00     0  00:00        0.00
  1397                 JUNCTION  -nan(ind)     0.00  1115.50     0  00:00        0.00
  1398                 JUNCTION  -nan(ind)     0.00  1134.00     0  00:00        0.00
  1399                 JUNCTION  -nan(ind)     0.00  1161.00     0  00:00        0.00
  1400                 JUNCTION  -nan(ind)     0.00  1186.00     0  00:00        0.00
  1401                 JUNCTION  -nan(ind)     0.00  1198.50     0  00:00        0.00
  1402                 JUNCTION  -nan(ind)     0.00  1221.00     0  00:00        0.00
  1403                 JUNCTION  -nan(ind)     0.00  1251.00     0  00:00        0.00
  1404                 JUNCTION  -nan(ind)     0.00  1284.00     0  00:00        0.00
  1405                 JUNCTION  -nan(ind)     0.00  1320.00     0  00:00        0.00
  1406                 JUNCTION  -nan(ind)     0.00  1346.00     0  00:00        0.00
  1407                 JUNCTION  -nan(ind)     0.00  1366.50     0  00:00        0.00
  1408                 JUNCTION  -nan(ind)     0.00  1386.00     0  00:00        0.00
  1409                 JUNCTION  -nan(ind)     0.00  1406.00     0  00:00        0.00
  1410                 JUNCTION  -nan(ind)     0.00  1409.60     0  00:00        0.00
  1411                 JUNCTION  -nan(ind)     0.00  1244.00     0  00:00        0.00
  1412                 JUNCTION  -nan(ind)     0.00  1260.00     0  00:00        0.00
  1413                 JUNCTION  -nan(ind)     0.00  1268.00     0  00:00        0.00
  1414                 JUNCTION  -nan(ind)     0.00  1276.00     0  00:00        0.00
  1415                 JUNCTION  -nan(ind)     0.00  1314.00     0  00:00        0.00
  1416                 JUNCTION  -nan(ind)     0.00  1276.30     0  00:00        0.00
  1417                 JUNCTION  -nan(ind)     0.00  1276.60     0  00:00        0.00
  1418                 JUNCTION  -nan(ind)     0.00   964.50     0  00:00        0.00
  1419                 JUNCTION  -nan(ind)     0.00   962.00     0  00:00        0.00
  1420                 JUNCTION  -nan(ind)     0.00   969.50     0  00:00        0.00
  1421                 JUNCTION  -nan(ind)     0.00   980.00     0  00:00        0.00
  1422                 JUNCTION  -nan(ind)     0.00   990.00     0  00:00        0.00
  1423                 JUNCTION  -nan(ind)     0.00   997.00     0  00:00        0.00
  1424                 JUNCTION  -nan(ind)     0.00  1001.35     0  00:00        0.00
  1425                 JUNCTION  -nan(ind)     0.00  1157.71     0  00:00        0.00
  1426                 JUNCTION  -nan(ind)     0.00  1148.51     0  00:00        0.00
  1427                 JUNCTION  -nan(ind)     0.00  1110.00     0  00:00        0.00
  1428                 JUNCTION  -nan(ind)     0.00  1119.00     0  00:00        0.00
  1429                 JUNCTION  -nan(ind)     0.00  1133.80     0  00:00        0.00
  1430                 JUNCTION  -nan(ind)     0.00   955.00     0  00:00        0.00
  1431                 JUNCTION  -nan(ind)     0.00   953.00     0  00:00        0.00
  1432                 JUNCTION  -nan(ind)     0.00   951.50     0  00:00        0.00
  1433                 JUNCTION  -nan(ind)     0.00   952.00     0  00:00        0.00
  1434                 JUNCTION  -nan(ind)     0.00   960.00     0  00:00        0.00
  1435                 JUNCTION  -nan(ind)     0.00   985.00     0  00:00        0.00
  1436                 JUNCTION  -nan(ind)     0.00  1021.00     0  00:00        0.00
  1437                 JUNCTION  -nan(ind)     0.00  1019.50     0  00:00        0.00
  1438                 JUNCTION  -nan(ind)     0.00  1019.00     0  00:00        0.00
  1439                 JUNCTION  -nan(ind)     0.00  1017.00     0  00:00        0.00
  1440                 JUNCTION  -nan(ind)     0.00  1007.00     0  00:00        0.00
  1441                 JUNCTION  -nan(ind)     0.00  1001.00     0  00:00        0.00
  1442                 JUNCTION  -nan(ind)     0.00   996.00     0  00:00        0.00
  1443                 JUNCTION  -nan(ind)     0.00   988.00     0  00:00        0.00
  1444                 JUNCTION  -nan(ind)     0.00   981.00     0  00:00        0.00
  1445                 JUNCTION  -nan(ind)     0.00   971.00     0  00:00        0.00
  1446                 JUNCTION  -nan(ind)     0.00   965.00     0  00:00        0.00
  1447                 JUNCTION  -nan(ind)     0.00   954.00     0  00:00        0.00
  1448                 JUNCTION  -nan(ind)     0.00   950.00     0  00:00        0.00
  1449                 JUNCTION  -nan(ind)     0.00   893.00     0  00:00        0.00
  1450                 JUNCTION  -nan(ind)     0.00   885.00     0  00:00        0.00
  1451                 JUNCTION  -nan(ind)     0.00   876.88     0  00:00        0.00
  1452                 JUNCTION  -nan(ind)     0.00   876.40     0  00:00        0.00
  1453                 JUNCTION  -nan(ind)     0.00   904.00     0  00:00        0.00
  1454                 JUNCTION  -nan(ind)     0.00   898.00     0  00:00        0.00
  1455                 JUNCTION  -nan(ind)     0.00   894.00     0  00:00        0.00
  1456                 JUNCTION  -nan(ind)     0.00   891.60     0  00:00        0.00
  1457                 JUNCTION  -nan(ind)     0.00   891.00     0  00:00        0.00
  1458                 JUNCTION  -nan(ind)     0.00   897.00     0  00:00        0.00
  1459                 JUNCTION  -nan(ind)     0.00   889.19     0  00:00        0.00
  1460                 JUNCTION  -nan(ind)     0.00   888.30     0  00:00        0.00
  1461                 JUNCTION  -nan(ind)     0.00   902.00     0  00:00        0.00
  1462                 JUNCTION  -nan(ind)     0.00   889.00     0  00:00        0.00
  1463                 JUNCTION  -nan(ind)     0.00   873.35     0  00:00        0.00
  1464                 JUNCTION  -nan(ind)     0.00   871.79     0  00:00        0.00
  1465                 JUNCTION  -nan(ind)     0.00   901.00     0  00:00        0.00
  1466                 JUNCTION  -nan(ind)     0.00   897.00     0  00:00        0.00
  1467                 JUNCTION  -nan(ind)     0.00   895.46     0  00:00        0.00
  1468                 JUNCTION  -nan(ind)     0.00  1124.00     0  00:00        0.00
  1469                 JUNCTION  -nan(ind)     0.00  1121.00     0  00:00        0.00
  1470                 JUNCTION  -nan(ind)     0.00  1106.00     0  00:00        0.00
  1471                 JUNCTION  -nan(ind)     0.00  1093.00     0  00:00        0.00
  1472                 JUNCTION  -nan(ind)     0.00  1082.00     0  00:00        0.00
  1473                 JUNCTION  -nan(ind)     0.00  1080.00     0  00:00        0.00
  1474                 JUNCTION  -nan(ind)     0.00  1070.50     0  00:00        0.00
  1488                 JUNCTION  -nan(ind)     0.00   851.28     0  00:00        0.00
  1489                 JUNCTION  -nan(ind)     0.00   856.04     0  00:00        0.00
  1490                 JUNCTION  -nan(ind)     0.00   860.90     0  00:00        0.00
  1491                 JUNCTION  -nan(ind)     0.00   864.30     0  00:00        0.00
  1492                 JUNCTION  -nan(ind)     0.00   868.97     0  00:00        0.00
  1493                 JUNCTION  -nan(ind)     0.00   874.64     0  00:00        0.00
  1494                 JUNCTION  -nan(ind)     0.00   881.69     0  00:00        0.00
  1495                 JUNCTION  -nan(ind)     0.00   898.00     0  00:00        0.00
  1496                 JUNCTION  -nan(ind)     0.00   908.22     0  00:00        0.00
  1497                 JUNCTION  -nan(ind)     0.00   918.00     0  00:00        0.00
  1498                 JUNCTION  -nan(ind)     0.00   924.60     0  00:00        0.00
  1661                 JUNCTION  -nan(ind)     0.00   839.84     0  00:00        0.00
  1662                 JUNCTION  -nan(ind)     0.00   842.03     0  00:00        0.00
  1663                 JUNCTION  -nan(ind)     0.00   856.08     0  00:00        0.00
  1664                 JUNCTION  -nan(ind)     0.00   857.85     0  00:00        0.00
  1665                 JUNCTION  -nan(ind)     0.00   858.65     0  00:00        0.00
  1666                 JUNCTION  -nan(ind)     0.00   858.84     0  00:00        0.00
  1667                 JUNCTION  -nan(ind)     0.00   860.81     0  00:00        0.00
  1668                 JUNCTION  -nan(ind)     0.00   861.79     0  00:00        0.00
  1669                 JUNCTION  -nan(ind)     0.00   862.01     0  00:00        0.00
  1670                 JUNCTION  -nan(ind)     0.00   867.73     0  00:00        0.00
  1671                 JUNCTION  -nan(ind)     0.00   871.73     0  00:00        0.00
  1672                 JUNCTION  -nan(ind)     0.00   889.73     0  00:00        0.00
  1673                 JUNCTION  -nan(ind)     0.00   879.51     0  00:00        0.00
  1674                 JUNCTION  -nan(ind)     0.00   904.45     0  00:00        0.00
  1675                 JUNCTION  -nan(ind)     0.00   949.95     0  00:00        0.00
  1676                 JUNCTION  -nan(ind)     0.00   983.34     0  00:00        0.00
  1677                 JUNCTION  -nan(ind)     0.00   990.43     0  00:00        0.00
  1678                 JUNCTION  -nan(ind)     0.00   951.23     0  00:00        0.00
  1679                 JUNCTION  -nan(ind)     0.00   952.84     0  00:00        0.00
  1680                 JUNCTION  -nan(ind)     0.00   839.00     0  00:00        0.00
  1681                 JUNCTION  -nan(ind)     0.00   905.60     0  00:00        0.00
  1682                 JUNCTION  -nan(ind)     0.00   912.06     0  00:00        0.00
  1683                 JUNCTION  -nan(ind)     0.00   918.64     0  00:00        0.00
  1684                 JUNCTION  -nan(ind)     0.00   925.25     0  00:00        0.00
  1685                 JUNCTION  -nan(ind)     0.00   932.08     0  00:00        0.00
  1701                 JUNCTION  -nan(ind)     0.00   889.62     0  00:00        0.00
  1702                 JUNCTION  -nan(ind)     0.00   891.20     0  00:00        0.00
  1703                 JUNCTION  -nan(ind)     0.00   898.98     0  00:00        0.00
  1704                 JUNCTION  -nan(ind)     0.00   900.28     0  00:00        0.00
  1705                 JUNCTION  -nan(ind)     0.00   901.34     0  00:00        0.00
  1706                 JUNCTION  -nan(ind)     0.00   915.69     0  00:00        0.00
  1707                 JUNCTION  -nan(ind)     0.00   927.81     0  00:00        0.00
  1708                 JUNCTION  -nan(ind)     0.00   941.10     0  00:00        0.00
  1710                 JUNCTION  -nan(ind)     0.00   893.67     0  00:00        0.00
  1711                 JUNCTION  -nan(ind)     0.00   897.22     0  00:00        0.00
  1712                 JUNCTION  -nan(ind)     0.00   898.80     0  00:00        0.00
  1713                 JUNCTION  -nan(ind)     0.00   913.28     0  00:00        0.00
  1742                 JUNCTION  -nan(ind)     0.00   811.56     0  00:00        0.00
  1743                 JUNCTION  -nan(ind)     0.00   811.85     0  00:00        0.00
  1744                 JUNCTION  -nan(ind)     0.00   812.36     0  00:00        0.00
  1745                 JUNCTION  -nan(ind)     0.00   812.76     0  00:00        0.00
  1746                 JUNCTION  -nan(ind)     0.00   813.16     0  00:00        0.00
  1747                 JUNCTION  -nan(ind)     0.00   813.56     0  00:00        0.00
  1748                 JUNCTION  -nan(ind)     0.00   813.96     0  00:00        0.00
  1749                 JUNCTION  -nan(ind)     0.00   814.36     0  00:00        0.00
  1750                 JUNCTION  -nan(ind)     0.00   814.76     0  00:00        0.00
  1751                 JUNCTION  -nan(ind)     0.00   815.16     0  00:00        0.00
  1752                 JUNCTION  -nan(ind)     0.00   815.60     0  00:00        0.00
  1753                 JUNCTION  -nan(ind)     0.00   819.70     0  00:00        0.00
  1754                 JUNCTION  -nan(ind)     0.00   819.70     0  00:00        0.00
  1755                 JUNCTION  -nan(ind)     0.00   819.70     0  00:00        0.00
  1756                 JUNCTION  -nan(ind)     0.00   819.70     0  00:00        0.00
  1757                 JUNCTION  -nan(ind)     0.00   819.00     0  00:00        0.00
  1758                 JUNCTION  -nan(ind)     0.00   819.70     0  00:00        0.00
  1759                 JUNCTION  -nan(ind)     0.00   824.00     0  00:00        0.00
  1760                 JUNCTION  -nan(ind)     0.00   812.73     0  00:00        0.00
  1761                 JUNCTION  -nan(ind)     0.00   813.33     0  00:00        0.00
  1762                 JUNCTION  -nan(ind)     0.00   814.10     0  00:00        0.00
  1819                 JUNCTION  -nan(ind)     0.00   918.50     0  00:00        0.00
  1820                 JUNCTION  -nan(ind)     0.00   916.86     0  00:00        0.00
  1821                 JUNCTION  -nan(ind)     0.00   915.45     0  00:00        0.00
  1822                 JUNCTION  -nan(ind)     0.00   914.25     0  00:00        0.00
  1823                 JUNCTION  -nan(ind)     0.00   928.47     0  00:00        0.00
  1824                 JUNCTION  -nan(ind)     0.00   932.00     0  00:00        0.00
  1825                 JUNCTION  -nan(ind)     0.00   936.00     0  00:00        0.00
  1826                 JUNCTION  -nan(ind)     0.00   938.50     0  00:00        0.00
  1827                 JUNCTION  -nan(ind)     0.00   929.50     0  00:00        0.00
  1828                 JUNCTION  -nan(ind)     0.00   931.25     0  00:00        0.00
  1829                 JUNCTION  -nan(ind)     0.00   936.50     0  00:00        0.00
  1830                 JUNCTION  -nan(ind)     0.00   938.20     0  00:00        0.00
  1831                 JUNCTION  -nan(ind)     0.00   939.90     0  00:00        0.00
  1832                 JUNCTION  -nan(ind)     0.00   941.60     0  00:00        0.00
  1833                 JUNCTION  -nan(ind)     0.00   914.56     0  00:00        0.00
  1835                 JUNCTION  -nan(ind)     0.00   999.00     0  00:00        0.00
  1836                 JUNCTION  -nan(ind)     0.00  1002.00     0  00:00        0.00
  1837                 JUNCTION  -nan(ind)     0.00  1003.00     0  00:00        0.00
  1838                 JUNCTION  -nan(ind)     0.00   992.00     0  00:00        0.00
  1839                 JUNCTION  -nan(ind)     0.00   993.00     0  00:00        0.00
  1840                 JUNCTION  -nan(ind)     0.00  1059.50     0  00:00        0.00
  1841                 JUNCTION  -nan(ind)     0.00  1038.00     0  00:00        0.00
  1842                 JUNCTION  -nan(ind)     0.00  1033.00     0  00:00        0.00
  1843                 JUNCTION  -nan(ind)     0.00  1023.00     0  00:00        0.00
  1844                 JUNCTION  -nan(ind)     0.00  1016.00     0  00:00        0.00
  1845                 JUNCTION  -nan(ind)     0.00  1000.00     0  00:00        0.00
  1846                 JUNCTION  -nan(ind)     0.00  1030.00     0  00:00        0.00
  1847                 JUNCTION  -nan(ind)     0.00  1044.00     0  00:00        0.00
  1848                 JUNCTION  -nan(ind)     0.00   944.00     0  00:00        0.00
  1849                 JUNCTION  -nan(ind)     0.00   948.00     0  00:00        0.00
  1850                 JUNCTION  -nan(ind)     0.00   973.00     0  00:00        0.00
  1851                 JUNCTION  -nan(ind)     0.00  1295.00     0  00:00        0.00
  1852                 JUNCTION  -nan(ind)     0.00  1289.00     0  00:00        0.00
  1853                 JUNCTION  -nan(ind)     0.00  1269.80     0  00:00        0.00
  1854                 JUNCTION  -nan(ind)     0.00  1357.00     0  00:00        0.00
  1855                 JUNCTION  -nan(ind)     0.00  1306.00     0  00:00        0.00
  1856                 JUNCTION  -nan(ind)     0.00  1324.00     0  00:00        0.00
  1857                 JUNCTION  -nan(ind)     0.00  1333.00     0  00:00        0.00
  1858                 JUNCTION  -nan(ind)     0.00  1335.50     0  00:00        0.00
  1859                 JUNCTION  -nan(ind)     0.00  1339.50     0  00:00        0.00
  1860                 JUNCTION  -nan(ind)     0.00  1341.69     0  00:00        0.00
  1878                 JUNCTION  -nan(ind)     0.00   939.88     0  00:00        0.00
  1879                 JUNCTION  -nan(ind)     0.00   927.11     0  00:00        0.00
  1880                 JUNCTION  -nan(ind)     0.00   934.80     0  00:00        0.00
  1887                 JUNCTION  -nan(ind)     0.00  1003.00     0  00:00        0.00
  1888                 JUNCTION  -nan(ind)     0.00  1014.50     0  00:00        0.00
  1889                 JUNCTION  -nan(ind)     0.00  1130.75     0  00:00        0.00
  1890                 JUNCTION  -nan(ind)     0.00  1151.00     0  00:00        0.00
  1890B                JUNCTION  -nan(ind)     0.00  1154.80     0  00:00        0.00
  1891                 JUNCTION  -nan(ind)     0.00  1151.05     0  00:00        0.00
  2115                 JUNCTION  -nan(ind)     0.00  1110.00     0  00:00        0.00
  2176                 JUNCTION  -nan(ind)     0.00   848.20     0  00:00        0.00
  2178                 JUNCTION  -nan(ind)     0.00   845.10     0  00:00        0.00
  2180                 JUNCTION  -nan(ind)     0.00   842.01     0  00:00        0.00
  2182                 JUNCTION  -nan(ind)     0.00   836.40     0  00:00        0.00
  2184                 JUNCTION  -nan(ind)     0.00   834.90     0  00:00        0.00
  2186                 JUNCTION  -nan(ind)     0.00   833.20     0  00:00        0.00
  2188                 JUNCTION  -nan(ind)     0.00  1412.10     0  00:00        0.00
  2190                 JUNCTION  -nan(ind)     0.00  1368.20     0  00:00        0.00
  2192                 JUNCTION  -nan(ind)     0.00  1419.25     0  00:00        0.00
  2194                 JUNCTION  -nan(ind)     0.00  1425.45     0  00:00        0.00
  2196                 JUNCTION  -nan(ind)     0.00  1432.60     0  00:00        0.00
  2218                 JUNCTION  -nan(ind)     0.00  1200.00     0  00:00        0.00
  443                  JUNCTION  -nan(ind)     0.00   879.14     0  00:00        0.00
  444                  JUNCTION  -nan(ind)     0.00   882.20     0  00:00        0.00
  445                  JUNCTION  -nan(ind)     0.00   883.52     0  00:00        0.00
  446                  JUNCTION  -nan(ind)     0.00   884.47     0  00:00        0.00
  447                  JUNCTION  -nan(ind)     0.00   846.64     0  00:00        0.00
  448                  JUNCTION  -nan(ind)     0.00   864.99     0  00:00        0.00
  449                  JUNCTION  -nan(ind)     0.00   863.24     0  00:00        0.00
  450                  JUNCTION  -nan(ind)     0.00   861.40     0  00:00        0.00
  451                  JUNCTION  -nan(ind)     0.00   857.81     0  00:00        0.00
  452                  JUNCTION  -nan(ind)     0.00   856.56     0  00:00        0.00
  453                  JUNCTION  -nan(ind)     0.00   853.57     0  00:00        0.00
  454                  JUNCTION  -nan(ind)     0.00   840.32     0  00:00        0.00
  455                  JUNCTION  -nan(ind)     0.00   836.56     0  00:00        0.00
  456                  JUNCTION  -nan(ind)     0.00   834.10     0  00:00        0.00
  457                  JUNCTION  -nan(ind)     0.00   833.50     0  00:00        0.00
  458                  JUNCTION  -nan(ind)     0.00   832.26     0  00:00        0.00
  459                  JUNCTION  -nan(ind)     0.00   827.63     0  00:00        0.00
  459A                 JUNCTION  -nan(ind)     0.00   824.06     0  00:00        0.00
  460                  JUNCTION  -nan(ind)     0.00   823.32     0  00:00        0.00
  461                  JUNCTION  -nan(ind)     0.00   821.90     0  00:00        0.00
  462                  JUNCTION  -nan(ind)     0.00   820.32     0  00:00        0.00
  2217                 OUTFALL   -nan(ind)     0.00   807.15     0  00:00        0.00
  OFALL-10             OUTFALL   -nan(ind)     0.00   807.15     0  00:00        0.00
  OFALL-12             OUTFALL   -nan(ind)     0.00   807.15     0  00:00        0.00
  SSO_OUTFALL          OUTFALL   -nan(ind)     0.00   838.40     0  00:00        0.00
  CAMERON_WW           STORAGE   -nan(ind)     0.00  1192.00     0  00:00        0.00
  CAMPUS_WW            STORAGE   -nan(ind)     0.00  1101.00     0  00:00        0.00
  
  
  *******************
  Node Inflow Summary
  *******************
  
  -------------------------------------------------------------------------------------------------
                                  Maximum  Maximum                  Lateral       Total        Flow
                                  Lateral    Total  Time of Max      Inflow      Inflow     Balance
                                   Inflow   Inflow   Occurrence      Volume      Volume       Error
  Node                 Type           GPM      GPM  days hr:min    10^6 gal    10^6 gal     Percent
  -------------------------------------------------------------------------------------------------
  1078                 JUNCTION      0.00     0.00     0  00:00           0           0       0.000 gal
  1079                 JUNCTION      0.00     0.00     0  00:00           0           0       0.000 gal
  1080                 JUNCTION      0.00     0.00     0  00:00           0           0       0.000 gal
  1081                 JUNCTION      0.00     0.00     0  00:00           0           0       0.000 gal
  1082                 JUNCTION      0.00     0.00     0  00:00           0           0       0.000 gal
  1083                 JUNCTION      0.00     0.00     0  00:00           0           0       0.000 gal
  1084                 JUNCTION      0.00     0.00     0  00:00           0           0       0.000 gal
  1085                 JUNCTION      0.00     0.00     0  00:00           0           0       0.000 gal
  1086                 JUNCTION      0.00     0.00     0  00:00           0           0       0.000 gal
  1087                 JUNCTION      0.00     0.00     0  00:00           0           0       0.000 gal
  1088                 JUNCTION      0.00     0.00     0  00:00           0           0       0.000 gal
  1089                 JUNCTION      0.00     0.00     0  00:00           0           0       0.000 gal
  1090                 JUNCTION      0.00     0.00     0  00:00           0           0       0.000 gal
  1091                 JUNCTION      0.00     0.00     0  00:00           0           0       0.000 gal
  1092                 JUNCTION      0.00     0.00     0  00:00           0           0       0.000 gal
  1093                 JUNCTION      0.00     0.00     0  00:00           0           0       0.000 gal
  1094                 JUNCTION      0.00     0.00     0  00:00           0           0       0.000 gal
  1095                 JUNCTION      0.00     0.00     0  00:00           0           0       0.000 gal
  1096                 JUNCTION      0.00     0.00     0  00:00           0           0       0.000 gal
  1097                 JUNCTION      0.00     0.00     0  00:00           0           0       0.000 gal
  1098                 JUNCTION      0.00     0.00     0  00:00           0           0       0.000 gal
  1099                 JUNCTION      0.00     0.00     0  00:00           0           0       0.000 gal
  1124                 JUNCTION      0.00     0.00     0  00:00           0           0       0.000 gal
  1125                 JUNCTION      0.00     0.00     0  00:00           0           0       0.000 gal
  1126                 JUNCTION      0.00     0.00     0  00:00           0           0       0.000 gal
  1127                 JUNCTION      0.00     0.00     0  00:00           0           0       0.000 gal
  1128                 JUNCTION      0.00     0.00     0  00:00           0           0       0.000 gal
  1129                 JUNCTION      0.00     0.00     0  00:00           0           0       0.000 gal
  1130                 JUNCTION      0.00     0.00     0  00:00           0           0       0.000 gal
  1131                 JUNCTION      0.00     0.00     0  00:00           0           0       0.000 gal
  1132                 JUNCTION      0.00     0.00     0  00:00           0           0       0.000 gal
  1133                 JUNCTION      0.00     0.00     0  00:00           0           0       0.000 gal
  1134                 JUNCTION      0.00     0.00     0  00:00           0           0       0.000 gal
  1135                 JUNCTION      0.00     0.00     0  00:00           0           0       0.000 gal
  1136                 JUNCTION      0.00     0.00     0  00:00           0           0       0.000 gal
  1137                 JUNCTION      0.00     0.00     0  00:00           0           0       0.000 gal
  1138                 JUNCTION      0.00     0.00     0  00:00           0           0       0.000 gal
  1139                 JUNCTION      0.00     0.00     0  00:00           0           0       0.000 gal
  1140                 JUNCTION      0.00     0.00     0  00:00           0           0       0.000 gal
  1141                 JUNCTION      0.00     0.00     0  00:00           0           0       0.000 gal
  1142                 JUNCTION      0.00     0.00     0  00:00           0           0       0.000 gal
  1143                 JUNCTION      0.00     0.00     0  00:00           0           0       0.000 gal
  1144                 JUNCTION      0.00     0.00     0  00:00           0           0       0.000 gal
  1145                 JUNCTION      0.00     0.00     0  00:00           0           0       0.000 gal
  1146                 JUNCTION      0.00     0.00     0  00:00           0           0       0.000 gal
  1147                 JUNCTION      0.00     0.00     0  00:00           0           0       0.000 gal
  1148                 JUNCTION      0.00     0.00     0  00:00           0           0       0.000 gal
  1149                 JUNCTION      0.00     0.00     0  00:00           0           0       0.000 gal
  1150                 JUNCTION      0.00     0.00     0  00:00           0           0       0.000 gal
  1151                 JUNCTION      0.00     0.00     0  00:00           0           0       0.000 gal
  1152                 JUNCTION      0.00     0.00     0  00:00           0           0       0.000 gal
  1153                 JUNCTION      0.00     0.00     0  00:00           0           0       0.000 gal
  1154                 JUNCTION      0.00     0.00     0  00:00           0           0       0.000 gal
  1155                 JUNCTION      0.00     0.00     0  00:00           0           0       0.000 gal
  1156                 JUNCTION      0.00     0.00     0  00:00           0           0       0.000 gal
  1157                 JUNCTION      0.00     0.00     0  00:00           0           0       0.000 gal
  1158                 JUNCTION      0.00     0.00     0  00:00           0           0       0.000 gal
  1159                 JUNCTION      0.00     0.00     0  00:00           0           0       0.000 gal
  1160                 JUNCTION      0.00     0.00     0  00:00           0           0       0.000 gal
  1161                 JUNCTION      0.00     0.00     0  00:00           0           0       0.000 gal
  1163                 JUNCTION      0.00     0.00     0  00:00           0           0       0.000 gal
  1164                 JUNCTION      0.00     0.00     0  00:00           0           0       0.000 gal
  1165                 JUNCTION      0.00     0.00     0  00:00           0           0       0.000 gal
  1166                 JUNCTION      0.00     0.00     0  00:00           0           0       0.000 gal
  1167                 JUNCTION      0.00     0.00     0  00:00           0           0       0.000 gal
  1168                 JUNCTION      0.00     0.00     0  00:00           0           0       0.000 gal
  1169                 JUNCTION      0.00     0.00     0  00:00           0           0       0.000 gal
  1170                 JUNCTION      0.00     0.00     0  00:00           0           0       0.000 gal
  1171                 JUNCTION      0.00     0.00     0  00:00           0           0       0.000 gal
  1172                 JUNCTION      0.00     0.00     0  00:00           0           0       0.000 gal
  1173                 JUNCTION      0.00     0.00     0  00:00           0           0       0.000 gal
  1174                 JUNCTION      0.00     0.00     0  00:00           0           0       0.000 gal
  1175                 JUNCTION      0.00     0.00     0  00:00           0           0       0.000 gal
  1176                 JUNCTION      0.00     0.00     0  00:00           0           0       0.000 gal
  1177                 JUNCTION      0.00     0.00     0  00:00           0           0       0.000 gal
  1178                 JUNCTION      0.00     0.00     0  00:00           0           0       0.000 gal
  1179                 JUNCTION      0.00     0.00     0  00:00           0           0       0.000 gal
  1180                 JUNCTION      0.00     0.00     0  00:00           0           0       0.000 gal
  1181                 JUNCTION      0.00     0.00     0  00:00           0           0       0.000 gal
  1182                 JUNCTION      0.00     0.00     0  00:00           0           0       0.000 gal
  1183                 JUNCTION      0.00     0.00     0  00:00           0           0       0.000 gal
  1184                 JUNCTION      0.00     0.00     0  00:00           0           0       0.000 gal
  1185                 JUNCTION      0.00     0.00     0  00:00           0           0       0.000 gal
  1186                 JUNCTION      0.00     0.00     0  00:00           0           0       0.000 gal
  1187                 JUNCTION      0.00     0.00     0  00:00           0           0       0.000 gal
  1188                 JUNCTION      0.00     0.00     0  00:00           0           0       0.000 gal
  1189                 JUNCTION      0.00     0.00     0  00:00           0           0       0.000 gal
  1329                 JUNCTION      0.00     0.00     0  00:00           0           0       0.000 gal
  1330                 JUNCTION      0.00     0.00     0  00:00           0           0       0.000 gal
  1331                 JUNCTION      0.00     0.00     0  00:00           0           0       0.000 gal
  1332                 JUNCTION      0.00     0.00     0  00:00           0           0       0.000 gal
  1333                 JUNCTION      0.00     0.00     0  00:00           0           0       0.000 gal
  1334                 JUNCTION      0.00     0.00     0  00:00           0           0       0.000 gal
  1335                 JUNCTION      0.00     0.00     0  00:00           0           0       0.000 gal
  1336                 JUNCTION      0.00     0.00     0  00:00           0           0       0.000 gal
  1337                 JUNCTION      0.00     0.00     0  00:00           0           0       0.000 gal
  1338                 JUNCTION      0.00     0.00     0  00:00           0           0       0.000 gal
  1339                 JUNCTION      0.00     0.00     0  00:00           0           0       0.000 gal
  1340                 JUNCTION      0.00     0.00     0  00:00           0           0       0.000 gal
  1341                 JUNCTION      0.00     0.00     0  00:00           0           0       0.000 gal
  1342                 JUNCTION      0.00     0.00     0  00:00           0           0       0.000 gal
  1343                 JUNCTION      0.00     0.00     0  00:00           0           0       0.000 gal
  1344                 JUNCTION      0.00     0.00     0  00:00           0           0       0.000 gal
  1345                 JUNCTION      0.00     0.00     0  00:00           0           0       0.000 gal
  1346                 JUNCTION      0.00     0.00     0  00:00           0           0       0.000 gal
  1347                 JUNCTION      0.00     0.00     0  00:00           0           0       0.000 gal
  1348                 JUNCTION      0.00     0.00     0  00:00           0           0       0.000 gal
  1349                 JUNCTION      0.00     0.00     0  00:00           0           0       0.000 gal
  1350                 JUNCTION      0.00     0.00     0  00:00           0           0       0.000 gal
  1351                 JUNCTION      0.00     0.00     0  00:00           0           0       0.000 gal
  1352                 JUNCTION      0.00     0.00     0  00:00           0           0       0.000 gal
  1353                 JUNCTION      0.00     0.00     0  00:00           0           0       0.000 gal
  1354                 JUNCTION      0.00     0.00     0  00:00           0           0       0.000 gal
  1355                 JUNCTION      0.00     0.00     0  00:00           0           0       0.000 gal
  1356                 JUNCTION      0.00     0.00     0  00:00           0           0       0.000 gal
  1357                 JUNCTION      0.00     0.00     0  00:00           0           0       0.000 gal
  1358                 JUNCTION      0.00     0.00     0  00:00           0           0       0.000 gal
  1359                 JUNCTION      0.00     0.00     0  00:00           0           0       0.000 gal
  1360                 JUNCTION      0.00     0.00     0  00:00           0           0       0.000 gal
  1361                 JUNCTION      0.00     0.00     0  00:00           0           0       0.000 gal
  1362                 JUNCTION      0.00     0.00     0  00:00           0           0       0.000 gal
  1363                 JUNCTION      0.00     0.00     0  00:00           0           0       0.000 gal
  1364                 JUNCTION      0.00     0.00     0  00:00           0           0       0.000 gal
  1365                 JUNCTION      0.00     0.00     0  00:00           0           0       0.000 gal
  1366                 JUNCTION      0.00     0.00     0  00:00           0           0       0.000 gal
  1367                 JUNCTION      0.00     0.00     0  00:00           0           0       0.000 gal
  1368                 JUNCTION      0.00     0.00     0  00:00           0           0       0.000 gal
  1369                 JUNCTION      0.00     0.00     0  00:00           0           0       0.000 gal
  1370                 JUNCTION      0.00     0.00     0  00:00           0           0       0.000 gal
  1371                 JUNCTION      0.00     0.00     0  00:00           0           0       0.000 gal
  1372                 JUNCTION      0.00     0.00     0  00:00           0           0       0.000 gal
  1373                 JUNCTION      0.00     0.00     0  00:00           0           0       0.000 gal
  1374                 JUNCTION      0.00     0.00     0  00:00           0           0       0.000 gal
  1375                 JUNCTION      0.00     0.00     0  00:00           0           0       0.000 gal
  1376                 JUNCTION      0.00     0.00     0  00:00           0           0       0.000 gal
  1377                 JUNCTION      0.00     0.00     0  00:00           0           0       0.000 gal
  1378                 JUNCTION      0.00     0.00     0  00:00           0           0       0.000 gal
  1379                 JUNCTION      0.00     0.00     0  00:00           0           0       0.000 gal
  1380                 JUNCTION      0.00     0.00     0  00:00           0           0       0.000 gal
  1381                 JUNCTION      0.00     0.00     0  00:00           0           0       0.000 gal
  1382                 JUNCTION      0.00     0.00     0  00:00           0           0       0.000 gal
  1383                 JUNCTION      0.00     0.00     0  00:00           0           0       0.000 gal
  1384                 JUNCTION      0.00     0.00     0  00:00           0           0       0.000 gal
  1385                 JUNCTION      0.00     0.00     0  00:00           0           0       0.000 gal
  1386                 JUNCTION      0.00     0.00     0  00:00           0           0       0.000 gal
  1387                 JUNCTION      0.00     0.00     0  00:00           0           0       0.000 gal
  1388                 JUNCTION      0.00     0.00     0  00:00           0           0       0.000 gal
  1389                 JUNCTION      0.00     0.00     0  00:00           0           0       0.000 gal
  1390                 JUNCTION      0.00     0.00     0  00:00           0           0       0.000 gal
  1391                 JUNCTION      0.00     0.00     0  00:00           0           0       0.000 gal
  1392                 JUNCTION      0.00     0.00     0  00:00           0           0       0.000 gal
  1393                 JUNCTION      0.00     0.00     0  00:00           0           0       0.000 gal
  1394                 JUNCTION      0.00     0.00     0  00:00           0           0       0.000 gal
  1395                 JUNCTION      0.00     0.00     0  00:00           0           0       0.000 gal
  1396                 JUNCTION      0.00     0.00     0  00:00           0           0       0.000 gal
  1397                 JUNCTION      0.00     0.00     0  00:00           0           0       0.000 gal
  1398                 JUNCTION      0.00     0.00     0  00:00           0           0       0.000 gal
  1399                 JUNCTION      0.00     0.00     0  00:00           0           0       0.000 gal
  1400                 JUNCTION      0.00     0.00     0  00:00           0           0       0.000 gal
  1401                 JUNCTION      0.00     0.00     0  00:00           0           0       0.000 gal
  1402                 JUNCTION      0.00     0.00     0  00:00           0           0       0.000 gal
  1403                 JUNCTION      0.00     0.00     0  00:00           0           0       0.000 gal
  1404                 JUNCTION      0.00     0.00     0  00:00           0           0       0.000 gal
  1405                 JUNCTION      0.00     0.00     0  00:00           0           0       0.000 gal
  1406                 JUNCTION      0.00     0.00     0  00:00           0           0       0.000 gal
  1407                 JUNCTION      0.00     0.00     0  00:00           0           0       0.000 gal
  1408                 JUNCTION      0.00     0.00     0  00:00           0           0       0.000 gal
  1409                 JUNCTION      0.00     0.00     0  00:00           0           0       0.000 gal
  1410                 JUNCTION      0.00     0.00     0  00:00           0           0       0.000 gal
  1411                 JUNCTION      0.00     0.00     0  00:00           0           0       0.000 gal
  1412                 JUNCTION      0.00     0.00     0  00:00           0           0       0.000 gal
  1413                 JUNCTION      0.00     0.00     0  00:00           0           0       0.000 gal
  1414                 JUNCTION      0.00     0.00     0  00:00           0           0       0.000 gal
  1415                 JUNCTION      0.00     0.00     0  00:00           0           0       0.000 gal
  1416                 JUNCTION      0.00     0.00     0  00:00           0           0       0.000 gal
  1417                 JUNCTION      0.00     0.00     0  00:00           0           0       0.000 gal
  1418                 JUNCTION      0.00     0.00     0  00:00           0           0       0.000 gal
  1419                 JUNCTION      0.00     0.00     0  00:00           0           0       0.000 gal
  1420                 JUNCTION      0.00     0.00     0  00:00           0           0       0.000 gal
  1421                 JUNCTION      0.00     0.00     0  00:00           0           0       0.000 gal
  1422                 JUNCTION      0.00     0.00     0  00:00           0           0       0.000 gal
  1423                 JUNCTION      0.00     0.00     0  00:00           0           0       0.000 gal
  1424                 JUNCTION      0.00     0.00     0  00:00           0           0       0.000 gal
  1425                 JUNCTION      0.00     0.00     0  00:00           0           0       0.000 gal
  1426                 JUNCTION      0.00     0.00     0  00:00           0           0       0.000 gal
  1427                 JUNCTION      0.00     0.00     0  00:00           0           0       0.000 gal
  1428                 JUNCTION      0.00     0.00     0  00:00           0           0       0.000 gal
  1429                 JUNCTION      0.00     0.00     0  00:00           0           0       0.000 gal
  1430                 JUNCTION      0.00     0.00     0  00:00           0           0       0.000 gal
  1431                 JUNCTION      0.00     0.00     0  00:00           0           0       0.000 gal
  1432                 JUNCTION      0.00     0.00     0  00:00           0           0       0.000 gal
  1433                 JUNCTION      0.00     0.00     0  00:00           0           0       0.000 gal
  1434                 JUNCTION      0.00     0.00     0  00:00           0           0       0.000 gal
  1435                 JUNCTION      0.00     0.00     0  00:00           0           0       0.000 gal
  1436                 JUNCTION      0.00     0.00     0  00:00           0           0       0.000 gal
  1437                 JUNCTION      0.00     0.00     0  00:00           0           0       0.000 gal
  1438                 JUNCTION      0.00     0.00     0  00:00           0           0       0.000 gal
  1439                 JUNCTION      0.00     0.00     0  00:00           0           0       0.000 gal
  1440                 JUNCTION      0.00     0.00     0  00:00           0           0       0.000 gal
  1441                 JUNCTION      0.00     0.00     0  00:00           0           0       0.000 gal
  1442                 JUNCTION      0.00     0.00     0  00:00           0           0       0.000 gal
  1443                 JUNCTION      0.00     0.00     0  00:00           0           0       0.000 gal
  1444                 JUNCTION      0.00     0.00     0  00:00           0           0       0.000 gal
  1445                 JUNCTION      0.00     0.00     0  00:00           0           0       0.000 gal
  1446                 JUNCTION      0.00     0.00     0  00:00           0           0       0.000 gal
  1447                 JUNCTION      0.00     0.00     0  00:00           0           0       0.000 gal
  1448                 JUNCTION      0.00     0.00     0  00:00           0           0       0.000 gal
  1449                 JUNCTION      0.00     0.00     0  00:00           0           0       0.000 gal
  1450                 JUNCTION      0.00     0.00     0  00:00           0           0       0.000 gal
  1451                 JUNCTION      0.00     0.00     0  00:00           0           0       0.000 gal
  1452                 JUNCTION      0.00     0.00     0  00:00           0           0       0.000 gal
  1453                 JUNCTION      0.00     0.00     0  00:00           0           0       0.000 gal
  1454                 JUNCTION      0.00     0.00     0  00:00           0           0       0.000 gal
  1455                 JUNCTION      0.00     0.00     0  00:00           0           0       0.000 gal
  1456                 JUNCTION      0.00     0.00     0  00:00           0           0       0.000 gal
  1457                 JUNCTION      0.00     0.00     0  00:00           0           0       0.000 gal
  1458                 JUNCTION      0.00     0.00     0  00:00           0           0       0.000 gal
  1459                 JUNCTION      0.00     0.00     0  00:00           0           0       0.000 gal
  1460                 JUNCTION      0.00     0.00     0  00:00           0           0       0.000 gal
  1461                 JUNCTION      0.00     0.00     0  00:00           0           0       0.000 gal
  1462                 JUNCTION      0.00     0.00     0  00:00           0           0       0.000 gal
  1463                 JUNCTION      0.00     0.00     0  00:00           0           0       0.000 gal
  1464                 JUNCTION      0.00     0.00     0  00:00           0           0       0.000 gal
  1465                 JUNCTION      0.00     0.00     0  00:00           0           0       0.000 gal
  1466                 JUNCTION      0.00     0.00     0  00:00           0           0       0.000 gal
  1467                 JUNCTION      0.00     0.00     0  00:00           0           0       0.000 gal
  1468                 JUNCTION      0.00     0.00     0  00:00           0           0       0.000 gal
  1469                 JUNCTION      0.00     0.00     0  00:00           0           0       0.000 gal
  1470                 JUNCTION      0.00     0.00     0  00:00           0           0       0.000 gal
  1471                 JUNCTION      0.00     0.00     0  00:00           0           0       0.000 gal
  1472                 JUNCTION      0.00     0.00     0  00:00           0           0       0.000 gal
  1473                 JUNCTION      0.00     0.00     0  00:00           0           0       0.000 gal
  1474                 JUNCTION      0.00     0.00     0  00:00           0           0       0.000 gal
  1488                 JUNCTION      0.00     0.00     0  00:00           0           0       0.000 gal
  1489                 JUNCTION      0.00     0.00     0  00:00           0           0       0.000 gal
  1490                 JUNCTION      0.00     0.00     0  00:00           0           0       0.000 gal
  1491                 JUNCTION      0.00     0.00     0  00:00           0           0       0.000 gal
  1492                 JUNCTION      0.00     0.00     0  00:00           0           0       0.000 gal
  1493                 JUNCTION      0.00     0.00     0  00:00           0           0       0.000 gal
  1494                 JUNCTION      0.00     0.00     0  00:00           0           0       0.000 gal
  1495                 JUNCTION      0.00     0.00     0  00:00           0           0       0.000 gal
  1496                 JUNCTION      0.00     0.00     0  00:00           0           0       0.000 gal
  1497                 JUNCTION      0.00     0.00     0  00:00           0           0       0.000 gal
  1498                 JUNCTION      0.00     0.00     0  00:00           0           0       0.000 gal
  1661                 JUNCTION      0.00     0.00     0  00:00           0           0       0.000 gal
  1662                 JUNCTION      0.00     0.00     0  00:00           0           0       0.000 gal
  1663                 JUNCTION      0.00     0.00     0  00:00           0           0       0.000 gal
  1664                 JUNCTION      0.00     0.00     0  00:00           0           0       0.000 gal
  1665                 JUNCTION      0.00     0.00     0  00:00           0           0       0.000 gal
  1666                 JUNCTION      0.00     0.00     0  00:00           0           0       0.000 gal
  1667                 JUNCTION      0.00     0.00     0  00:00           0           0       0.000 gal
[...]
  1648                    2.53   -nan(ind)  -nan(ind)  -nan(ind)  -nan(ind)  -nan(ind)  -nan(ind)  -nan(ind)  -nan(ind)  -nan(ind)
  1649                    1.00   -nan(ind)  -nan(ind)  -nan(ind)  -nan(ind)  -nan(ind)  -nan(ind)  -nan(ind)  -nan(ind)  -nan(ind)
  1650                    1.00   -nan(ind)  -nan(ind)  -nan(ind)  -nan(ind)  -nan(ind)  -nan(ind)  -nan(ind)  -nan(ind)  -nan(ind)
  1651                    1.00   -nan(ind)  -nan(ind)  -nan(ind)  -nan(ind)  -nan(ind)  -nan(ind)  -nan(ind)  -nan(ind)  -nan(ind)
  1652                    1.00   -nan(ind)  -nan(ind)  -nan(ind)  -nan(ind)  -nan(ind)  -nan(ind)  -nan(ind)  -nan(ind)  -nan(ind)
  1653                    1.00   -nan(ind)  -nan(ind)  -nan(ind)  -nan(ind)  -nan(ind)  -nan(ind)  -nan(ind)  -nan(ind)  -nan(ind)
  1669                    1.00   -nan(ind)  -nan(ind)  -nan(ind)  -nan(ind)  -nan(ind)  -nan(ind)  -nan(ind)  -nan(ind)  -nan(ind)
  1670                    1.00   -nan(ind)  -nan(ind)  -nan(ind)  -nan(ind)  -nan(ind)  -nan(ind)  -nan(ind)  -nan(ind)  -nan(ind)
  1671                    1.00   -nan(ind)  -nan(ind)  -nan(ind)  -nan(ind)  -nan(ind)  -nan(ind)  -nan(ind)  -nan(ind)  -nan(ind)
  1672                    1.00   -nan(ind)  -nan(ind)  -nan(ind)  -nan(ind)  -nan(ind)  -nan(ind)  -nan(ind)  -nan(ind)  -nan(ind)
  1673                    1.00   -nan(ind)  -nan(ind)  -nan(ind)  -nan(ind)  -nan(ind)  -nan(ind)  -nan(ind)  -nan(ind)  -nan(ind)
  1674                    1.00   -nan(ind)  -nan(ind)  -nan(ind)  -nan(ind)  -nan(ind)  -nan(ind)  -nan(ind)  -nan(ind)  -nan(ind)
  1675                    1.00   -nan(ind)  -nan(ind)  -nan(ind)  -nan(ind)  -nan(ind)  -nan(ind)  -nan(ind)  -nan(ind)  -nan(ind)
  1676                    1.00   -nan(ind)  -nan(ind)  -nan(ind)  -nan(ind)  -nan(ind)  -nan(ind)  -nan(ind)  -nan(ind)  -nan(ind)
  1677                    1.10   -nan(ind)  -nan(ind)  -nan(ind)  -nan(ind)  -nan(ind)  -nan(ind)  -nan(ind)  -nan(ind)  -nan(ind)
  1678                    1.00   -nan(ind)  -nan(ind)  -nan(ind)  -nan(ind)  -nan(ind)  -nan(ind)  -nan(ind)  -nan(ind)  -nan(ind)
  1679                    1.00   -nan(ind)  -nan(ind)  -nan(ind)  -nan(ind)  -nan(ind)  -nan(ind)  -nan(ind)  -nan(ind)  -nan(ind)
  1680                    1.00   -nan(ind)  -nan(ind)  -nan(ind)  -nan(ind)  -nan(ind)  -nan(ind)  -nan(ind)  -nan(ind)  -nan(ind)
  1713                    1.00   -nan(ind)  -nan(ind)  -nan(ind)  -nan(ind)  -nan(ind)  -nan(ind)  -nan(ind)  -nan(ind)  -nan(ind)
  1714                    1.00   -nan(ind)  -nan(ind)  -nan(ind)  -nan(ind)  -nan(ind)  -nan(ind)  -nan(ind)  -nan(ind)  -nan(ind)
  1715                    1.00   -nan(ind)  -nan(ind)  -nan(ind)  -nan(ind)  -nan(ind)  -nan(ind)  -nan(ind)  -nan(ind)  -nan(ind)
  1716                    1.00   -nan(ind)  -nan(ind)  -nan(ind)  -nan(ind)  -nan(ind)  -nan(ind)  -nan(ind)  -nan(ind)  -nan(ind)
  1717                    1.00   -nan(ind)  -nan(ind)  -nan(ind)  -nan(ind)  -nan(ind)  -nan(ind)  -nan(ind)  -nan(ind)  -nan(ind)
  1718                    1.00   -nan(ind)  -nan(ind)  -nan(ind)  -nan(ind)  -nan(ind)  -nan(ind)  -nan(ind)  -nan(ind)  -nan(ind)
  1719                    1.00   -nan(ind)  -nan(ind)  -nan(ind)  -nan(ind)  -nan(ind)  -nan(ind)  -nan(ind)  -nan(ind)  -nan(ind)
  1720                    1.00   -nan(ind)  -nan(ind)  -nan(ind)  -nan(ind)  -nan(ind)  -nan(ind)  -nan(ind)  -nan(ind)  -nan(ind)
  1721                    1.00   -nan(ind)  -nan(ind)  -nan(ind)  -nan(ind)  -nan(ind)  -nan(ind)  -nan(ind)  -nan(ind)  -nan(ind)
  1722                    1.00   -nan(ind)  -nan(ind)  -nan(ind)  -nan(ind)  -nan(ind)  -nan(ind)  -nan(ind)  -nan(ind)  -nan(ind)
  1723                    1.00   -nan(ind)  -nan(ind)  -nan(ind)  -nan(ind)  -nan(ind)  -nan(ind)  -nan(ind)  -nan(ind)  -nan(ind)
  1724                    1.00   -nan(ind)  -nan(ind)  -nan(ind)  -nan(ind)  -nan(ind)  -nan(ind)  -nan(ind)  -nan(ind)  -nan(ind)
  1725                    1.00   -nan(ind)  -nan(ind)  -nan(ind)  -nan(ind)  -nan(ind)  -nan(ind)  -nan(ind)  -nan(ind)  -nan(ind)
  1726                    1.00   -nan(ind)  -nan(ind)  -nan(ind)  -nan(ind)  -nan(ind)  -nan(ind)  -nan(ind)  -nan(ind)  -nan(ind)
  1727                    1.00   -nan(ind)  -nan(ind)  -nan(ind)  -nan(ind)  -nan(ind)  -nan(ind)  -nan(ind)  -nan(ind)  -nan(ind)
  1728                    1.00   -nan(ind)  -nan(ind)  -nan(ind)  -nan(ind)  -nan(ind)  -nan(ind)  -nan(ind)  -nan(ind)  -nan(ind)
  1729                    2.25   -nan(ind)  -nan(ind)  -nan(ind)  -nan(ind)  -nan(ind)  -nan(ind)  -nan(ind)  -nan(ind)  -nan(ind)
  1730                   16.55   -nan(ind)  -nan(ind)  -nan(ind)  -nan(ind)  -nan(ind)  -nan(ind)  -nan(ind)  -nan(ind)  -nan(ind)
  1731                   16.55   -nan(ind)  -nan(ind)  -nan(ind)  -nan(ind)  -nan(ind)  -nan(ind)  -nan(ind)  -nan(ind)  -nan(ind)
  1732                   16.55   -nan(ind)  -nan(ind)  -nan(ind)  -nan(ind)  -nan(ind)  -nan(ind)  -nan(ind)  -nan(ind)  -nan(ind)
  1733                   16.55   -nan(ind)  -nan(ind)  -nan(ind)  -nan(ind)  -nan(ind)  -nan(ind)  -nan(ind)  -nan(ind)  -nan(ind)
  1734                   16.55   -nan(ind)  -nan(ind)  -nan(ind)  -nan(ind)  -nan(ind)  -nan(ind)  -nan(ind)  -nan(ind)  -nan(ind)
  1735                    1.12   -nan(ind)  -nan(ind)  -nan(ind)  -nan(ind)  -nan(ind)  -nan(ind)  -nan(ind)  -nan(ind)  -nan(ind)
  1736                    1.00   -nan(ind)  -nan(ind)  -nan(ind)  -nan(ind)  -nan(ind)  -nan(ind)  -nan(ind)  -nan(ind)  -nan(ind)
  1737                    1.00   -nan(ind)  -nan(ind)  -nan(ind)  -nan(ind)  -nan(ind)  -nan(ind)  -nan(ind)  -nan(ind)  -nan(ind)
  1798                    1.00   -nan(ind)  -nan(ind)  -nan(ind)  -nan(ind)  -nan(ind)  -nan(ind)  -nan(ind)  -nan(ind)  -nan(ind)
  1799                    1.00   -nan(ind)  -nan(ind)  -nan(ind)  -nan(ind)  -nan(ind)  -nan(ind)  -nan(ind)  -nan(ind)  -nan(ind)
  1800                    1.00   -nan(ind)  -nan(ind)  -nan(ind)  -nan(ind)  -nan(ind)  -nan(ind)  -nan(ind)  -nan(ind)  -nan(ind)
  1801                    1.00   -nan(ind)  -nan(ind)  -nan(ind)  -nan(ind)  -nan(ind)  -nan(ind)  -nan(ind)  -nan(ind)  -nan(ind)
  1802                    1.00   -nan(ind)  -nan(ind)  -nan(ind)  -nan(ind)  -nan(ind)  -nan(ind)  -nan(ind)  -nan(ind)  -nan(ind)
  1803                    1.00   -nan(ind)  -nan(ind)  -nan(ind)  -nan(ind)  -nan(ind)  -nan(ind)  -nan(ind)  -nan(ind)  -nan(ind)
  1804                    1.00   -nan(ind)  -nan(ind)  -nan(ind)  -nan(ind)  -nan(ind)  -nan(ind)  -nan(ind)  -nan(ind)  -nan(ind)
  1805                    1.00   -nan(ind)  -nan(ind)  -nan(ind)  -nan(ind)  -nan(ind)  -nan(ind)  -nan(ind)  -nan(ind)  -nan(ind)
  1806                    1.00   -nan(ind)  -nan(ind)  -nan(ind)  -nan(ind)  -nan(ind)  -nan(ind)  -nan(ind)  -nan(ind)  -nan(ind)
  1807                    1.00   -nan(ind)  -nan(ind)  -nan(ind)  -nan(ind)  -nan(ind)  -nan(ind)  -nan(ind)  -nan(ind)  -nan(ind)
  1808                    1.00   -nan(ind)  -nan(ind)  -nan(ind)  -nan(ind)  -nan(ind)  -nan(ind)  -nan(ind)  -nan(ind)  -nan(ind)
  1809                    1.00   -nan(ind)  -nan(ind)  -nan(ind)  -nan(ind)  -nan(ind)  -nan(ind)  -nan(ind)  -nan(ind)  -nan(ind)
  1810                    1.44   -nan(ind)  -nan(ind)  -nan(ind)  -nan(ind)  -nan(ind)  -nan(ind)  -nan(ind)  -nan(ind)  -nan(ind)
  1812                    1.00   -nan(ind)  -nan(ind)  -nan(ind)  -nan(ind)  -nan(ind)  -nan(ind)  -nan(ind)  -nan(ind)  -nan(ind)
  1813                    1.00   -nan(ind)  -nan(ind)  -nan(ind)  -nan(ind)  -nan(ind)  -nan(ind)  -nan(ind)  -nan(ind)  -nan(ind)
  1814                    1.00   -nan(ind)  -nan(ind)  -nan(ind)  -nan(ind)  -nan(ind)  -nan(ind)  -nan(ind)  -nan(ind)  -nan(ind)
  1815                    1.00   -nan(ind)  -nan(ind)  -nan(ind)  -nan(ind)  -nan(ind)  -nan(ind)  -nan(ind)  -nan(ind)  -nan(ind)
  1816                    1.00   -nan(ind)  -nan(ind)  -nan(ind)  -nan(ind)  -nan(ind)  -nan(ind)  -nan(ind)  -nan(ind)  -nan(ind)
  1817                    1.00   -nan(ind)  -nan(ind)  -nan(ind)  -nan(ind)  -nan(ind)  -nan(ind)  -nan(ind)  -nan(ind)  -nan(ind)
  1818                    1.55   -nan(ind)  -nan(ind)  -nan(ind)  -nan(ind)  -nan(ind)  -nan(ind)  -nan(ind)  -nan(ind)  -nan(ind)
  1819                    1.00   -nan(ind)  -nan(ind)  -nan(ind)  -nan(ind)  -nan(ind)  -nan(ind)  -nan(ind)  -nan(ind)  -nan(ind)
  1820                    1.00   -nan(ind)  -nan(ind)  -nan(ind)  -nan(ind)  -nan(ind)  -nan(ind)  -nan(ind)  -nan(ind)  -nan(ind)
  1821                    1.00   -nan(ind)  -nan(ind)  -nan(ind)  -nan(ind)  -nan(ind)  -nan(ind)  -nan(ind)  -nan(ind)  -nan(ind)
  1822                    1.00   -nan(ind)  -nan(ind)  -nan(ind)  -nan(ind)  -nan(ind)  -nan(ind)  -nan(ind)  -nan(ind)  -nan(ind)
  1823                    1.66   -nan(ind)  -nan(ind)  -nan(ind)  -nan(ind)  -nan(ind)  -nan(ind)  -nan(ind)  -nan(ind)  -nan(ind)
  1824                    1.23   -nan(ind)  -nan(ind)  -nan(ind)  -nan(ind)  -nan(ind)  -nan(ind)  -nan(ind)  -nan(ind)  -nan(ind)
  1825                    1.59   -nan(ind)  -nan(ind)  -nan(ind)  -nan(ind)  -nan(ind)  -nan(ind)  -nan(ind)  -nan(ind)  -nan(ind)
  1826                    1.84   -nan(ind)  -nan(ind)  -nan(ind)  -nan(ind)  -nan(ind)  -nan(ind)  -nan(ind)  -nan(ind)  -nan(ind)
  1827                    1.00   -nan(ind)  -nan(ind)  -nan(ind)  -nan(ind)  -nan(ind)  -nan(ind)  -nan(ind)  -nan(ind)  -nan(ind)
  1828                    1.00   -nan(ind)  -nan(ind)  -nan(ind)  -nan(ind)  -nan(ind)  -nan(ind)  -nan(ind)  -nan(ind)  -nan(ind)
  1829                    1.00   -nan(ind)  -nan(ind)  -nan(ind)  -nan(ind)  -nan(ind)  -nan(ind)  -nan(ind)  -nan(ind)  -nan(ind)
  1830                    1.00   -nan(ind)  -nan(ind)  -nan(ind)  -nan(ind)  -nan(ind)  -nan(ind)  -nan(ind)  -nan(ind)  -nan(ind)
  1831                    1.00   -nan(ind)  -nan(ind)  -nan(ind)  -nan(ind)  -nan(ind)  -nan(ind)  -nan(ind)  -nan(ind)  -nan(ind)
  1832                    1.21   -nan(ind)  -nan(ind)  -nan(ind)  -nan(ind)  -nan(ind)  -nan(ind)  -nan(ind)  -nan(ind)  -nan(ind)
  1833                    1.00   -nan(ind)  -nan(ind)  -nan(ind)  -nan(ind)  -nan(ind)  -nan(ind)  -nan(ind)  -nan(ind)  -nan(ind)
  1834                    1.00   -nan(ind)  -nan(ind)  -nan(ind)  -nan(ind)  -nan(ind)  -nan(ind)  -nan(ind)  -nan(ind)  -nan(ind)
  1835                    1.00   -nan(ind)  -nan(ind)  -nan(ind)  -nan(ind)  -nan(ind)  -nan(ind)  -nan(ind)  -nan(ind)  -nan(ind)
  1836                    1.40   -nan(ind)  -nan(ind)  -nan(ind)  -nan(ind)  -nan(ind)  -nan(ind)  -nan(ind)  -nan(ind)  -nan(ind)
  1837                    1.00   -nan(ind)  -nan(ind)  -nan(ind)  -nan(ind)  -nan(ind)  -nan(ind)  -nan(ind)  -nan(ind)  -nan(ind)
  1838                    1.00   -nan(ind)  -nan(ind)  -nan(ind)  -nan(ind)  -nan(ind)  -nan(ind)  -nan(ind)  -nan(ind)  -nan(ind)
  1839                    1.00   -nan(ind)  -nan(ind)  -nan(ind)  -nan(ind)  -nan(ind)  -nan(ind)  -nan(ind)  -nan(ind)  -nan(ind)
  1840                    1.00   -nan(ind)  -nan(ind)  -nan(ind)  -nan(ind)  -nan(ind)  -nan(ind)  -nan(ind)  -nan(ind)  -nan(ind)
  1841                    1.00   -nan(ind)  -nan(ind)  -nan(ind)  -nan(ind)  -nan(ind)  -nan(ind)  -nan(ind)  -nan(ind)  -nan(ind)
  1862                    1.00   -nan(ind)  -nan(ind)  -nan(ind)  -nan(ind)  -nan(ind)  -nan(ind)  -nan(ind)  -nan(ind)  -nan(ind)
  1863                    1.00   -nan(ind)  -nan(ind)  -nan(ind)  -nan(ind)  -nan(ind)  -nan(ind)  -nan(ind)  -nan(ind)  -nan(ind)
  1864                    1.00   -nan(ind)  -nan(ind)  -nan(ind)  -nan(ind)  -nan(ind)  -nan(ind)  -nan(ind)  -nan(ind)  -nan(ind)
  1865                    1.00   -nan(ind)  -nan(ind)  -nan(ind)  -nan(ind)  -nan(ind)  -nan(ind)  -nan(ind)  -nan(ind)  -nan(ind)
  1866                    1.00   -nan(ind)  -nan(ind)  -nan(ind)  -nan(ind)  -nan(ind)  -nan(ind)  -nan(ind)  -nan(ind)  -nan(ind)
  1876                    1.00   -nan(ind)  -nan(ind)  -nan(ind)  -nan(ind)  -nan(ind)  -nan(ind)  -nan(ind)  -nan(ind)  -nan(ind)
  1877                    1.00   -nan(ind)  -nan(ind)  -nan(ind)  -nan(ind)  -nan(ind)  -nan(ind)  -nan(ind)  -nan(ind)  -nan(ind)
  1878                    1.47   -nan(ind)  -nan(ind)  -nan(ind)  -nan(ind)  -nan(ind)  -nan(ind)  -nan(ind)  -nan(ind)  -nan(ind)
  1879                    1.00   -nan(ind)  -nan(ind)  -nan(ind)  -nan(ind)  -nan(ind)  -nan(ind)  -nan(ind)  -nan(ind)  -nan(ind)
  1880                    1.09   -nan(ind)  -nan(ind)  -nan(ind)  -nan(ind)  -nan(ind)  -nan(ind)  -nan(ind)  -nan(ind)  -nan(ind)
  1881                    1.00   -nan(ind)  -nan(ind)  -nan(ind)  -nan(ind)  -nan(ind)  -nan(ind)  -nan(ind)  -nan(ind)  -nan(ind)
  1882                    1.00   -nan(ind)  -nan(ind)  -nan(ind)  -nan(ind)  -nan(ind)  -nan(ind)  -nan(ind)  -nan(ind)  -nan(ind)
  1883                    1.26   -nan(ind)  -nan(ind)  -nan(ind)  -nan(ind)  -nan(ind)  -nan(ind)  -nan(ind)  -nan(ind)  -nan(ind)
  1932                    2.51   -nan(ind)  -nan(ind)  -nan(ind)  -nan(ind)  -nan(ind)  -nan(ind)  -nan(ind)  -nan(ind)  -nan(ind)
  2021                    1.00   -nan(ind)  -nan(ind)  -nan(ind)  -nan(ind)  -nan(ind)  -nan(ind)  -nan(ind)  -nan(ind)  -nan(ind)
  2022                    1.63   -nan(ind)  -nan(ind)  -nan(ind)  -nan(ind)  -nan(ind)  -nan(ind)  -nan(ind)  -nan(ind)  -nan(ind)
  2150                    1.00   -nan(ind)  -nan(ind)  -nan(ind)  -nan(ind)  -nan(ind)  -nan(ind)  -nan(ind)  -nan(ind)  -nan(ind)
  2172                    1.00   -nan(ind)  -nan(ind)  -nan(ind)  -nan(ind)  -nan(ind)  -nan(ind)  -nan(ind)  -nan(ind)  -nan(ind)
  2173                    1.00   -nan(ind)  -nan(ind)  -nan(ind)  -nan(ind)  -nan(ind)  -nan(ind)  -nan(ind)  -nan(ind)  -nan(ind)
  2174                    1.00   -nan(ind)  -nan(ind)  -nan(ind)  -nan(ind)  -nan(ind)  -nan(ind)  -nan(ind)  -nan(ind)  -nan(ind)
  2175                    1.00   -nan(ind)  -nan(ind)  -nan(ind)  -nan(ind)  -nan(ind)  -nan(ind)  -nan(ind)  -nan(ind)  -nan(ind)
  2176                    1.00   -nan(ind)  -nan(ind)  -nan(ind)  -nan(ind)  -nan(ind)  -nan(ind)  -nan(ind)  -nan(ind)  -nan(ind)
  2177                    1.00   -nan(ind)  -nan(ind)  -nan(ind)  -nan(ind)  -nan(ind)  -nan(ind)  -nan(ind)  -nan(ind)  -nan(ind)
  2178                    1.00   -nan(ind)  -nan(ind)  -nan(ind)  -nan(ind)  -nan(ind)  -nan(ind)  -nan(ind)  -nan(ind)  -nan(ind)
  2179                    1.04   -nan(ind)  -nan(ind)  -nan(ind)  -nan(ind)  -nan(ind)  -nan(ind)  -nan(ind)  -nan(ind)  -nan(ind)
  2180                    1.00   -nan(ind)  -nan(ind)  -nan(ind)  -nan(ind)  -nan(ind)  -nan(ind)  -nan(ind)  -nan(ind)  -nan(ind)
  2181                    1.00   -nan(ind)  -nan(ind)  -nan(ind)  -nan(ind)  -nan(ind)  -nan(ind)  -nan(ind)  -nan(ind)  -nan(ind)
  2182                    1.00   -nan(ind)  -nan(ind)  -nan(ind)  -nan(ind)  -nan(ind)  -nan(ind)  -nan(ind)  -nan(ind)  -nan(ind)
  2183                    1.00   -nan(ind)  -nan(ind)  -nan(ind)  -nan(ind)  -nan(ind)  -nan(ind)  -nan(ind)  -nan(ind)  -nan(ind)
  2184                    1.00   -nan(ind)  -nan(ind)  -nan(ind)  -nan(ind)  -nan(ind)  -nan(ind)  -nan(ind)  -nan(ind)  -nan(ind)
  2185                    1.00   -nan(ind)  -nan(ind)  -nan(ind)  -nan(ind)  -nan(ind)  -nan(ind)  -nan(ind)  -nan(ind)  -nan(ind)
  2186                    1.00   -nan(ind)  -nan(ind)  -nan(ind)  -nan(ind)  -nan(ind)  -nan(ind)  -nan(ind)  -nan(ind)  -nan(ind)
  2187                    1.00   -nan(ind)  -nan(ind)  -nan(ind)  -nan(ind)  -nan(ind)  -nan(ind)  -nan(ind)  -nan(ind)  -nan(ind)
  2188                    1.00   -nan(ind)  -nan(ind)  -nan(ind)  -nan(ind)  -nan(ind)  -nan(ind)  -nan(ind)  -nan(ind)  -nan(ind)
  2189                    1.32   -nan(ind)  -nan(ind)  -nan(ind)  -nan(ind)  -nan(ind)  -nan(ind)  -nan(ind)  -nan(ind)  -nan(ind)
  2190                    1.00   -nan(ind)  -nan(ind)  -nan(ind)  -nan(ind)  -nan(ind)  -nan(ind)  -nan(ind)  -nan(ind)  -nan(ind)
  397                     1.00   -nan(ind)  -nan(ind)  -nan(ind)  -nan(ind)  -nan(ind)  -nan(ind)  -nan(ind)  -nan(ind)  -nan(ind)
  398                     1.00   -nan(ind)  -nan(ind)  -nan(ind)  -nan(ind)  -nan(ind)  -nan(ind)  -nan(ind)  -nan(ind)  -nan(ind)
  399                     6.33   -nan(ind)  -nan(ind)  -nan(ind)  -nan(ind)  -nan(ind)  -nan(ind)  -nan(ind)  -nan(ind)  -nan(ind)
  400                     1.68   -nan(ind)  -nan(ind)  -nan(ind)  -nan(ind)  -nan(ind)  -nan(ind)  -nan(ind)  -nan(ind)  -nan(ind)
  401                     1.00   -nan(ind)  -nan(ind)  -nan(ind)  -nan(ind)  -nan(ind)  -nan(ind)  -nan(ind)  -nan(ind)  -nan(ind)
  402                     1.00   -nan(ind)  -nan(ind)  -nan(ind)  -nan(ind)  -nan(ind)  -nan(ind)  -nan(ind)  -nan(ind)  -nan(ind)
  403                     1.00   -nan(ind)  -nan(ind)  -nan(ind)  -nan(ind)  -nan(ind)  -nan(ind)  -nan(ind)  -nan(ind)  -nan(ind)
  404                     1.00   -nan(ind)  -nan(ind)  -nan(ind)  -nan(ind)  -nan(ind)  -nan(ind)  -nan(ind)  -nan(ind)  -nan(ind)
  405                     1.29   -nan(ind)  -nan(ind)  -nan(ind)  -nan(ind)  -nan(ind)  -nan(ind)  -nan(ind)  -nan(ind)  -nan(ind)
  406                     3.72   -nan(ind)  -nan(ind)  -nan(ind)  -nan(ind)  -nan(ind)  -nan(ind)  -nan(ind)  -nan(ind)  -nan(ind)
  407                     1.07   -nan(ind)  -nan(ind)  -nan(ind)  -nan(ind)  -nan(ind)  -nan(ind)  -nan(ind)  -nan(ind)  -nan(ind)
  408                     1.00   -nan(ind)  -nan(ind)  -nan(ind)  -nan(ind)  -nan(ind)  -nan(ind)  -nan(ind)  -nan(ind)  -nan(ind)
  409                     1.00   -nan(ind)  -nan(ind)  -nan(ind)  -nan(ind)  -nan(ind)  -nan(ind)  -nan(ind)  -nan(ind)  -nan(ind)
  410                     1.00   -nan(ind)  -nan(ind)  -nan(ind)  -nan(ind)  -nan(ind)  -nan(ind)  -nan(ind)  -nan(ind)  -nan(ind)
  411                     1.00   -nan(ind)  -nan(ind)  -nan(ind)  -nan(ind)  -nan(ind)  -nan(ind)  -nan(ind)  -nan(ind)  -nan(ind)
  412                     1.08   -nan(ind)  -nan(ind)  -nan(ind)  -nan(ind)  -nan(ind)  -nan(ind)  -nan(ind)  -nan(ind)  -nan(ind)
  413                     5.90   -nan(ind)  -nan(ind)  -nan(ind)  -nan(ind)  -nan(ind)  -nan(ind)  -nan(ind)  -nan(ind)  -nan(ind)
  414                     1.00   -nan(ind)  -nan(ind)  -nan(ind)  -nan(ind)  -nan(ind)  -nan(ind)  -nan(ind)  -nan(ind)  -nan(ind)
  415                     1.00   -nan(ind)  -nan(ind)  -nan(ind)  -nan(ind)  -nan(ind)  -nan(ind)  -nan(ind)  -nan(ind)  -nan(ind)
  CDT-11                 94.35   -nan(ind)  -nan(ind)  -nan(ind)  -nan(ind)  -nan(ind)  -nan(ind)  -nan(ind)  -nan(ind)  -nan(ind)
  
  
  *************************
  Conduit Surcharge Summary
  *************************
  
  No conduits were surcharged.
  
  
  ***************
  Pumping Summary
  ***************
  
  ---------------------------------------------------------------------------------------------------------
                                                  Min       Avg       Max     Total     Power    % Time Off
                        Percent   Number of      Flow      Flow      Flow    Volume     Usage    Pump Curve
  Pump                 Utilized   Start-Ups       GPM       GPM       GPM  10^6 gal     Kw-hr    Low   High
  ---------------------------------------------------------------------------------------------------------
  CAMERON_PS1          -nan(ind)           0      0.00      0.00      0.00     0.000      0.00    0.0    0.0
  CAMERON_PS2          -nan(ind)           0      0.00      0.00      0.00     0.000      0.00    0.0    0.0
  CAMPUS_PS1           -nan(ind)           0      0.00      0.00      0.00     0.000      0.00    0.0    0.0
  CAMPUS_PS2           -nan(ind)           0      0.00      0.00      0.00     0.000      0.00    0.0    0.0
  

  Analysis begun on:  Sat Nov 30 08:11:32 2019
  Analysis ended on:  Sat Nov 30 08:11:32 2019
  Total elapsed time: < 1 sec