
  EPA STORM WATER MANAGEMENT MODEL - VERSION 5.1 (Build 5.1.013)
  --------------------------------------------------------------

  WARNING 04: minimum elevation drop used for Conduit 1726
  WARNING 04: minimum elevation drop used for Conduit 1728
  WARNING 04: minimum elevation drop used for Conduit 1730
  WARNING 04: minimum elevation drop used for Conduit 1732
  WARNING 04: minimum elevation drop used for Conduit 1734
  WARNING 04: minimum elevation drop used for Conduit 1736
  WARNING 04: minimum elevation drop used for Conduit 1738
  WARNING 04: minimum elevation drop used for Conduit 1740
  WARNING 04: minimum elevation drop used for Conduit 1742
  WARNING 04: minimum elevation drop used for Conduit 1744
  WARNING 04: minimum elevation drop used for Conduit 1746
  WARNING 04: minimum elevation drop used for Conduit 1748
  WARNING 04: minimum elevation drop used for Conduit 1750
  WARNING 04: minimum elevation drop used for Conduit 1752
  WARNING 04: minimum elevation drop used for Conduit 1754
  WARNING 04: minimum elevation drop used for Conduit 1756
  WARNING 04: minimum elevation drop used for Conduit 1758
  WARNING 04: minimum elevation drop used for Conduit 1760
  WARNING 04: minimum elevation drop used for Conduit 1762
  WARNING 04: minimum elevation drop used for Conduit 1764
  WARNING 04: minimum elevation drop used for Conduit 1766
  WARNING 04: minimum elevation drop used for Conduit 1768
  WARNING 04: minimum elevation drop used for Conduit 1770
  WARNING 04: minimum elevation drop used for Conduit 1772
  WARNING 04: minimum elevation drop used for Conduit 1788
  WARNING 04: minimum elevation drop used for Conduit 927
  WARNING 08: elevation drop exceeds length for Conduit CDT-13
  WARNING 02: maximum depth increased for Node 1743
  WARNING 02: maximum depth increased for Node 1745
  
  *************
  Element Count
  *************
  Number of rain gages ...... 0
  Number of subcatchments ... 0
  Number of nodes ........... 915
  Number of links ........... 907
  Number of pollutants ...... 0
  Number of land uses ....... 0
  
  
  ************
  Node Summary
  ************
                                           Invert      Max.    Ponded    External
  Name                 Type                 Elev.     Depth      Area    Inflow  
  -------------------------------------------------------------------------------
  2                    JUNCTION           4864.75     14.03       0.0    Yes
  3                    JUNCTION           4853.90     16.53       0.0    Yes
  5                    JUNCTION           4847.36     16.72       0.0    Yes
  7                    JUNCTION           4840.94     16.46       0.0    Yes
  9                    JUNCTION           4831.95     13.89       0.0    Yes
  11                   JUNCTION           4810.34     14.10       0.0    Yes
  13                   JUNCTION           4793.36     14.40       0.0    Yes
  15                   JUNCTION           4781.93     13.71       0.0    Yes
  17                   JUNCTION           4771.24     15.84       0.0    Yes
  19                   JUNCTION           4761.93     14.76       0.0    Yes
  21                   JUNCTION           4753.16     15.43       0.0    Yes
  23                   JUNCTION           4746.56     12.53       0.0    Yes
  25                   JUNCTION           4736.40     14.14       0.0    Yes
  27                   JUNCTION           4729.65     13.00       0.0    Yes
  29                   JUNCTION           4728.54     12.15       0.0    Yes
  31                   JUNCTION           4717.96     12.33       0.0    Yes
  33                   JUNCTION           4715.67     11.58       0.0    Yes
  35                   JUNCTION           4693.06     11.50       0.0    Yes
  37                   JUNCTION           4686.93     13.77       0.0    Yes
  39                   JUNCTION           4681.23     13.33       0.0    Yes
  41                   JUNCTION           4675.84     12.83       0.0    Yes
  43                   JUNCTION           4669.49     12.92       0.0    Yes
  45                   JUNCTION           4666.68     15.67       0.0    Yes
  47                   JUNCTION           4663.45     15.25       0.0    Yes
  49                   JUNCTION           4660.74     12.58       0.0    Yes
  51                   JUNCTION           4655.14     10.67       0.0    Yes
  53                   JUNCTION           4645.95     13.08       0.0    Yes
  55                   JUNCTION           4644.72     11.17       0.0    Yes
  57                   JUNCTION           4634.61     14.92       0.0    Yes
  59                   JUNCTION           4615.38     15.72       0.0    Yes
  61                   JUNCTION           4615.12     16.17       0.0    Yes
  63                   JUNCTION           4609.57     13.83       0.0    Yes
  65                   JUNCTION           4601.67     12.42       0.0    Yes
  67                   JUNCTION           4593.20      7.67       0.0    Yes
  69                   JUNCTION           4586.80      8.25       0.0    Yes
  71                   JUNCTION           4584.53      8.25       0.0    Yes
  73                   JUNCTION           4574.55     12.75       0.0    Yes
  74                   JUNCTION           4565.04     11.25       0.0    Yes
  76                   JUNCTION           4555.90     12.25       0.0    Yes
  78                   JUNCTION           4543.74     15.92       0.0    Yes
  80                   JUNCTION           4538.39     12.92       0.0    Yes
  82                   JUNCTION           4531.45     13.03       0.0    Yes
  84                   JUNCTION           4524.50     12.50       0.0    Yes
  85                   JUNCTION           4516.85     14.67       0.0    Yes
  87                   JUNCTION           4512.36     17.04       0.0    Yes
  89                   JUNCTION           4511.77     17.75       0.0    Yes
  91                   JUNCTION           4505.22     18.00       0.0    Yes
  93                   JUNCTION           4501.25     15.58       0.0    Yes
  95                   JUNCTION           4497.08     12.67       0.0    Yes
  97                   JUNCTION           4496.36     13.00       0.0    Yes
  99                   JUNCTION           4487.33     14.58       0.0    Yes
  101                  JUNCTION           4481.74     14.00       0.0    Yes
  103                  JUNCTION           4475.04     14.50       0.0    Yes
  105                  JUNCTION           4465.88     15.33       0.0    Yes
  107                  JUNCTION           4459.01     15.33       0.0    Yes
  109                  JUNCTION           4456.70     16.00       0.0    Yes
  111                  JUNCTION           4451.04     11.57       0.0    Yes
  113                  JUNCTION           4445.32     10.33       0.0    Yes
  115                  JUNCTION           4439.99     10.83       0.0    Yes
  117                  JUNCTION           4438.56     10.98       0.0    Yes
  119                  JUNCTION           4438.46     11.00       0.0    Yes
  121                  JUNCTION           4535.76     15.67       0.0    Yes
  123                  JUNCTION           4529.41     15.07       0.0    Yes
  125                  JUNCTION           4524.76     13.17       0.0    Yes
  127                  JUNCTION           4520.10     11.58       0.0    Yes
  129                  JUNCTION           4510.03     20.67       0.0    Yes
  131                  JUNCTION           4508.59     17.50       0.0    Yes
  133                  JUNCTION           4505.36     13.17       0.0    Yes
  135                  JUNCTION           4500.52     12.58       0.0    Yes
  137                  JUNCTION           4494.91     11.83       0.0    Yes
  139                  JUNCTION           4493.82     11.83       0.0    Yes
  141                  JUNCTION           4489.08     12.33       0.0    Yes
  143                  JUNCTION           4483.89     12.58       0.0    Yes
  145                  JUNCTION           4478.46     11.00       0.0    Yes
  146                  JUNCTION           4476.01     12.42       0.0    Yes
  148                  JUNCTION           4473.84     12.25       0.0    Yes
  150                  JUNCTION           4471.54     11.67       0.0    Yes
  152                  JUNCTION           4470.28     12.25       0.0    Yes
  154                  JUNCTION           4470.18     12.17       0.0    Yes
  156                  JUNCTION           4467.53     12.00       0.0    Yes
  158                  JUNCTION           4465.67     12.00       0.0    Yes
  160                  JUNCTION           4463.42     12.17       0.0    Yes
  162                  JUNCTION           4461.65     11.35       0.0    Yes
  164                  JUNCTION           4460.57     12.00       0.0    Yes
  166                  JUNCTION           4459.04     12.50       0.0    Yes
  168                  JUNCTION           4457.89     12.92       0.0    Yes
  170                  JUNCTION           4455.10     12.50       0.0    Yes
  172                  JUNCTION           4452.03     12.17       0.0    Yes
  174                  JUNCTION           4447.47     11.76       0.0    Yes
  176                  JUNCTION           4445.20      9.50       0.0    Yes
  178                  JUNCTION           4442.50      9.92       0.0    Yes
  180                  JUNCTION           4438.02     12.50       0.0    Yes
  182                  JUNCTION           4437.40     13.00       0.0    Yes
  184                  JUNCTION           4436.77     13.08       0.0    Yes
  186                  JUNCTION           4435.98     13.75       0.0    Yes
  188                  JUNCTION           4435.29     15.25       0.0    Yes
  190                  JUNCTION           4434.49     16.75       0.0    Yes
  192                  JUNCTION           4435.59     15.83       0.0    Yes
  193                  JUNCTION           4428.42     11.48       0.0    Yes
  195                  JUNCTION           4422.65     17.25       0.0    Yes
  197                  JUNCTION           4415.98     16.50       0.0    Yes
  199                  JUNCTION           4412.07     12.33       0.0    Yes
  201                  JUNCTION           4400.37     13.34       0.0    Yes
  203                  JUNCTION           4398.44     13.66       0.0    Yes
  205                  JUNCTION           4391.08     15.00       0.0    Yes
  207                  JUNCTION           4390.12     13.00       0.0    Yes
  209                  JUNCTION           4388.26     13.00       0.0    Yes
  211                  JUNCTION           4383.70     12.43       0.0    Yes
  213                  JUNCTION           4379.22     12.33       0.0    Yes
  215                  JUNCTION           4375.58     13.17       0.0    Yes
  217                  JUNCTION           4373.94     13.67       0.0    Yes
  219                  JUNCTION           4372.13     12.25       0.0    Yes
  221                  JUNCTION           4366.82     13.42       0.0    Yes
  223                  JUNCTION           4366.30     11.25       0.0    Yes
  225                  JUNCTION           4366.16     10.58       0.0    Yes
  227                  JUNCTION           4356.84     15.50       0.0    Yes
  229                  JUNCTION           4355.71     12.25       0.0    Yes
  231                  JUNCTION           4347.01     13.08       0.0    Yes
  233                  JUNCTION           4346.30     10.66       0.0    Yes
  235                  JUNCTION           4342.64     11.83       0.0    Yes
  237                  JUNCTION           4340.58     11.16       0.0    Yes
  239                  JUNCTION           4336.20     13.00       0.0    Yes
  241                  JUNCTION           4320.84     16.84       0.0    Yes
  243                  JUNCTION           4320.39     17.29       0.0    Yes
  244                  JUNCTION           4317.28     16.83       0.0    Yes
  246                  JUNCTION           4315.24     15.25       0.0    Yes
  248                  JUNCTION           4312.09     12.17       0.0    Yes
  250                  JUNCTION           4289.80     18.00       0.0    Yes
  252                  JUNCTION           4281.18     13.37       0.0    Yes
  254                  JUNCTION           4441.26      9.50       0.0    Yes
  255                  JUNCTION           4441.91      8.75       0.0    Yes
  257                  JUNCTION           4439.09     11.50       0.0    Yes
  258                  JUNCTION           4438.87     11.83       0.0    Yes
  260                  JUNCTION           4438.50     11.75       0.0    Yes
  262                  JUNCTION           4438.48     12.06       0.0    Yes
  265                  JUNCTION           4440.93     10.67       0.0    Yes
  267                  JUNCTION           4440.22     10.67       0.0    Yes
  269                  JUNCTION           4439.94     10.83       0.0    Yes
  271                  JUNCTION           4439.42     10.83       0.0    Yes
  273                  JUNCTION           4439.12     11.17       0.0    Yes
  275                  JUNCTION           4438.62     11.58       0.0    Yes
  277                  JUNCTION           4438.08     12.75       0.0    Yes
  279                  JUNCTION           4436.74     14.25       0.0    Yes
  281                  JUNCTION           4436.34     14.58       0.0    Yes
  283                  JUNCTION           4429.48     15.01       0.0    Yes
  285                  JUNCTION           4430.23     11.00       0.0    Yes
  287                  JUNCTION           4424.59      7.42       0.0    Yes
  289                  JUNCTION           4762.37     10.75       0.0    Yes
  290                  JUNCTION           4748.55     11.00       0.0    Yes
  292                  JUNCTION           4735.74      9.33       0.0    Yes
  294                  JUNCTION           4723.32     10.68       0.0    Yes
  296                  JUNCTION           4710.90     10.33       0.0    Yes
  297                  JUNCTION           4707.64     10.00       0.0    Yes
  299                  JUNCTION           4700.61     10.17       0.0    Yes
  301                  JUNCTION           4688.69      9.08       0.0    Yes
  303                  JUNCTION           4688.02      9.00       0.0    Yes
  305                  JUNCTION           4681.04      9.17       0.0    Yes
  307                  JUNCTION           4676.39     10.61       0.0    Yes
  309                  JUNCTION           4672.96      9.58       0.0    Yes
  311                  JUNCTION           4663.65      9.83       0.0    Yes
  313                  JUNCTION           4657.58      8.25       0.0    Yes
  315                  JUNCTION           4651.80      6.32       0.0    Yes
  317                  JUNCTION           4649.90      5.85       0.0    Yes
  319                  JUNCTION           4635.48      7.42       0.0    Yes
  321                  JUNCTION           4627.61      7.13       0.0    Yes
  323                  JUNCTION           4627.56     12.17       0.0    Yes
  325                  JUNCTION           4624.88     14.58       0.0    Yes
  327                  JUNCTION           4624.24     15.18       0.0    Yes
  329                  JUNCTION           4622.70     14.42       0.0    Yes
  331                  JUNCTION           4621.07     14.42       0.0    Yes
  333                  JUNCTION           4620.21     13.25       0.0    Yes
  335                  JUNCTION           4619.10     13.67       0.0    Yes
  337                  JUNCTION           4617.79     13.50       0.0    Yes
  339                  JUNCTION           4616.72     14.25       0.0    Yes
  342                  JUNCTION           4716.00     11.42       0.0    Yes
  344                  JUNCTION           4716.98     11.58       0.0    Yes
  346                  JUNCTION           4717.53     11.58       0.0    Yes
  348                  JUNCTION           4719.68     11.58       0.0    Yes
  350                  JUNCTION           4720.65     13.08       0.0    Yes
  352                  JUNCTION           4723.94     15.25       0.0    Yes
  354                  JUNCTION           4729.32     15.50       0.0    Yes
  356                  JUNCTION           4733.96     16.75       0.0    Yes
  358                  JUNCTION           4735.52     19.43       0.0    Yes
  360                  JUNCTION           4746.06     14.58       0.0    Yes
  362                  JUNCTION           4772.84      9.40       0.0    Yes
  363                  JUNCTION           4772.39      9.42       0.0    Yes
  365                  JUNCTION           4771.36     10.00       0.0    Yes
  367                  JUNCTION           4770.08     14.33       0.0    Yes
  369                  JUNCTION           4768.53     13.25       0.0    Yes
  371                  JUNCTION           4766.64     14.52       0.0    Yes
  373                  JUNCTION           4746.95     12.05       0.0    Yes
  374                  JUNCTION           4737.61     11.83       0.0    Yes
  376                  JUNCTION           4727.61     12.50       0.0    Yes
  378                  JUNCTION           4725.05     12.00       0.0    Yes
  380                  JUNCTION           4714.13     12.92       0.0    Yes
  382                  JUNCTION           4701.53     14.80       0.0    Yes
  386                  JUNCTION           4683.62     14.83       0.0    Yes
  388                  JUNCTION           4672.13     12.87       0.0    Yes
  390                  JUNCTION           4616.04     14.67       0.0    Yes
  391                  JUNCTION           4614.00     16.00       0.0    Yes
  393                  JUNCTION           4598.27     14.00       0.0    Yes
  394                  JUNCTION           4591.10     13.25       0.0    Yes
  399                  JUNCTION           4570.91     12.86       0.0    Yes
  401                  JUNCTION           4569.41     17.84       0.0    Yes
  403                  JUNCTION           4567.55     17.78       0.0    Yes
  405                  JUNCTION           4565.60     15.48       0.0    Yes
  407                  JUNCTION           4564.05     13.64       0.0    Yes
  409                  JUNCTION           4562.47     13.32       0.0    Yes
  411                  JUNCTION           4560.62     13.48       0.0    Yes
  422                  JUNCTION           4564.13     10.97       0.0    Yes
  424                  JUNCTION           4553.73     10.44       0.0    Yes
  426                  JUNCTION           4542.11     16.81       0.0    Yes
  428                  JUNCTION           4537.93     20.60       0.0    Yes
  430                  JUNCTION           4533.71     15.62       0.0    Yes
  432                  JUNCTION           4531.28     13.25       0.0    Yes
  434                  JUNCTION           4520.40     16.50       0.0    Yes
  436                  JUNCTION           4519.41     11.75       0.0    Yes
  438                  JUNCTION           4518.73      6.17       0.0    Yes
  440                  JUNCTION           4517.80      6.75       0.0    Yes
  442                  JUNCTION           4517.35      6.83       0.0    Yes
  444                  JUNCTION           4516.72     13.00       0.0    Yes
  446                  JUNCTION           4516.61     13.25       0.0    Yes
  448                  JUNCTION           4515.84     11.83       0.0    Yes
  450                  JUNCTION           4515.82      7.86       0.0    Yes
  452                  JUNCTION           4515.63      8.37       0.0    Yes
  453                  JUNCTION           4515.44      9.05       0.0    Yes
  455                  JUNCTION           4515.19     11.79       0.0    Yes
  457                  JUNCTION           4514.93     13.82       0.0    Yes
  459                  JUNCTION           4514.87     14.04       0.0    Yes
  461                  JUNCTION           4514.27     14.75       0.0    Yes
  463                  JUNCTION           4513.50     15.10       0.0    Yes
  466                  JUNCTION           4550.55      8.42       0.0    Yes
  467                  JUNCTION           4549.33     11.75       0.0    Yes
  469                  JUNCTION           4548.31     12.25       0.0    Yes
  471                  JUNCTION           4546.82     12.00       0.0    Yes
  473                  JUNCTION           4544.61     12.92       0.0    Yes
  475                  JUNCTION           4541.11     19.26       0.0    Yes
  478                  JUNCTION           4528.95      7.58       0.0    Yes
  479                  JUNCTION           4527.34     11.17       0.0    Yes
  482                  JUNCTION           4532.27     25.33       0.0    Yes
  483                  JUNCTION           4528.48     24.00       0.0    Yes
  485                  JUNCTION           4525.02     17.17       0.0    Yes
  487                  JUNCTION           4524.48     17.93       0.0    Yes
  489                  JUNCTION           4523.83     17.58       0.0    Yes
  491                  JUNCTION           4522.85     15.42       0.0    Yes
  493                  JUNCTION           4521.69     19.17       0.0    Yes
  496                  JUNCTION           4496.93     13.25       0.0    Yes
  497                  JUNCTION           4487.10     12.90       0.0    Yes
  499                  JUNCTION           4477.26     12.84       0.0    Yes
  500                  JUNCTION           4476.36     12.25       0.0    Yes
  502                  JUNCTION           4475.54     12.33       0.0    Yes
  504                  JUNCTION           4470.99     12.50       0.0    Yes
  506                  JUNCTION           4465.07     12.58       0.0    Yes
  508                  JUNCTION           4462.05     12.09       0.0    Yes
  510                  JUNCTION           4461.20     12.00       0.0    Yes
  512                  JUNCTION           4458.62     13.00       0.0    Yes
  514                  JUNCTION           4454.54     11.50       0.0    Yes
  516                  JUNCTION           4451.16     10.67       0.0    Yes
  518                  JUNCTION           4447.37     13.00       0.0    Yes
  520                  JUNCTION           4443.08     13.08       0.0    Yes
  525                  JUNCTION           4431.28     14.33       0.0    Yes
  527                  JUNCTION           4428.41     12.33       0.0    Yes
  529                  JUNCTION           4420.57     12.00       0.0    Yes
  531                  JUNCTION           4412.65     11.25       0.0    Yes
  533                  JUNCTION           4406.42     11.33       0.0    Yes
  535                  JUNCTION           4404.47     11.67       0.0    Yes
  537                  JUNCTION           4403.45     11.25       0.0    Yes
  539                  JUNCTION           4402.67     11.15       0.0    Yes
  541                  JUNCTION           4400.18     12.00       0.0    Yes
  543                  JUNCTION           4391.38     14.50       0.0    Yes
  546                  JUNCTION           4368.98     11.50       0.0    Yes
  547                  JUNCTION           4365.38     11.50       0.0    Yes
  549                  JUNCTION           4358.78     13.45       0.0    Yes
  551                  JUNCTION           4354.89     13.00       0.0    Yes
  553                  JUNCTION           4353.04     10.83       0.0    Yes
  555                  JUNCTION           4346.83     13.42       0.0    Yes
  557                  JUNCTION           4345.89     13.58       0.0    Yes
  559                  JUNCTION           4339.04     12.83       0.0    Yes
  561                  JUNCTION           4337.30     12.08       0.0    Yes
  563                  JUNCTION           4330.96     12.41       0.0    Yes
  565                  JUNCTION           4522.21     10.75       0.0    Yes
  566                  JUNCTION           4520.30     10.42       0.0    Yes
  568                  JUNCTION           4516.23     11.60       0.0    Yes
  570                  JUNCTION           4512.22     10.42       0.0    Yes
  572                  JUNCTION           4507.52     11.67       0.0    Yes
  574                  JUNCTION           4510.08     17.72       0.0    Yes
  575                  JUNCTION           4509.36      7.45       0.0    Yes
  577                  JUNCTION           4508.55      7.53       0.0    Yes
  579                  JUNCTION           4507.76      9.05       0.0    Yes
  582                  JUNCTION           4506.32     10.83       0.0    Yes
  584                  JUNCTION           4505.54     12.75       0.0    Yes
  586                  JUNCTION           4504.78     15.17       0.0    Yes
  588                  JUNCTION           4504.27     16.25       0.0    Yes
  590                  JUNCTION           4503.90     16.10       0.0    Yes
  592                  JUNCTION           4364.50      9.85       0.0    Yes
  593                  JUNCTION           4363.34     12.75       0.0    Yes
  595                  JUNCTION           4362.83     14.18       0.0    Yes
  597                  JUNCTION           4362.58     14.20       0.0    Yes
  599                  JUNCTION           4361.71     13.80       0.0    Yes
  601                  JUNCTION           4361.31     13.94       0.0    Yes
  603                  JUNCTION           4361.13     13.05       0.0    Yes
  605                  JUNCTION           4358.61     13.50       0.0    Yes
  607                  JUNCTION           4360.44     13.70       0.0    Yes
  609                  JUNCTION           4360.89     14.45       0.0    Yes
  611                  JUNCTION           4361.80     11.52       0.0    Yes
  613                  JUNCTION           4362.62      8.88       0.0    Yes
  615                  JUNCTION           4362.83      8.64       0.0    Yes
  617                  JUNCTION           4363.33     10.18       0.0    Yes
  619                  JUNCTION           4364.17      8.27       0.0    Yes
  621                  JUNCTION           4364.78      6.23       0.0    Yes
  623                  JUNCTION           4365.65      7.00       0.0    Yes
  625                  JUNCTION           4366.27      7.71       0.0    Yes
  627                  JUNCTION           4366.33      7.77       0.0    Yes
  629                  JUNCTION           4366.88      8.72       0.0    Yes
  631                  JUNCTION           4367.62      9.90       0.0    Yes
  633                  JUNCTION           4368.49     11.05       0.0    Yes
  635                  JUNCTION           4369.08     12.00       0.0    Yes
  637                  JUNCTION           4372.27     11.00       0.0    Yes
  639                  JUNCTION           4374.18     10.40       0.0    Yes
  641                  JUNCTION           4376.27     11.50       0.0    Yes
  643                  JUNCTION           4378.46     11.95       0.0    Yes
  645                  JUNCTION           4382.20     10.50       0.0    Yes
  647                  JUNCTION           4383.94     10.45       0.0    Yes
  649                  JUNCTION           4386.28     10.20       0.0    Yes
  651                  JUNCTION           4388.15     10.24       0.0    Yes
  653                  JUNCTION           4388.33     10.15       0.0    Yes
  655                  JUNCTION           4388.54     10.30       0.0    Yes
  657                  JUNCTION           4390.33     10.20       0.0    Yes
  659                  JUNCTION           4393.09     10.04       0.0    Yes
  661                  JUNCTION           4553.42     12.00       0.0    Yes
  662                  JUNCTION           4551.78     12.00       0.0    Yes
  664                  JUNCTION           4547.11      8.00       0.0    Yes
  666                  JUNCTION           4545.08      8.42       0.0    Yes
  668                  JUNCTION           4533.67      8.83       0.0    Yes
  670                  JUNCTION           4519.34      9.75       0.0    Yes
  672                  JUNCTION           4518.10      9.75       0.0    Yes
  674                  JUNCTION           4513.16      9.00       0.0    Yes
  676                  JUNCTION           4507.46      7.75       0.0    Yes
  678                  JUNCTION           4500.70      8.50       0.0    Yes
  680                  JUNCTION           4499.37      8.67       0.0    Yes
  682                  JUNCTION           4494.58      9.42       0.0    Yes
  683                  JUNCTION           4489.80     10.25       0.0    Yes
  685                  JUNCTION           4482.72     12.58       0.0    Yes
  687                  JUNCTION           4476.95     12.00       0.0    Yes
  689                  JUNCTION           4472.56     10.25       0.0    Yes
  691                  JUNCTION           4463.63     15.00       0.0    Yes
  693                  JUNCTION           4460.52     16.33       0.0    Yes
  695                  JUNCTION           4454.67     15.67       0.0    Yes
  697                  JUNCTION           4448.34     12.33       0.0    Yes
  699                  JUNCTION           4445.43      9.67       0.0    Yes
  701                  JUNCTION           4440.37     10.83       0.0    Yes
  703                  JUNCTION           4437.45     10.50       0.0    Yes
  705                  JUNCTION           4431.98     10.25       0.0    Yes
  707                  JUNCTION           4425.97     11.05       0.0    Yes
  709                  JUNCTION           4418.48     13.00       0.0    Yes
  711                  JUNCTION           4413.97     12.17       0.0    Yes
  713                  JUNCTION           4408.89     12.58       0.0    Yes
  715                  JUNCTION           4407.97     12.50       0.0    Yes
  717                  JUNCTION           4403.73     13.10       0.0    Yes
  719                  JUNCTION           4399.42     10.33       0.0    Yes
  721                  JUNCTION           4393.29     10.71       0.0    Yes
  723                  JUNCTION           4393.14     10.86       0.0    Yes
  728                  JUNCTION           4388.61      9.39       0.0    Yes
  730                  JUNCTION           4383.28      7.72       0.0    Yes
  732                  JUNCTION           4378.25      8.75       0.0    Yes
  734                  JUNCTION           4373.15      7.85       0.0    Yes
  736                  JUNCTION           4368.02      7.98       0.0    Yes
  738                  JUNCTION           4363.45      8.05       0.0    Yes
  742                  JUNCTION           4354.47     12.25       0.0    Yes
  744                  JUNCTION           4353.30     11.90       0.0    Yes
  746                  JUNCTION           4352.26     12.30       0.0    Yes
  748                  JUNCTION           4351.34     12.45       0.0    Yes
  750                  JUNCTION           4345.30     17.50       0.0    Yes
  752                  JUNCTION           4345.26     17.20       0.0    Yes
  754                  JUNCTION           4344.03     12.50       0.0    Yes
  756                  JUNCTION           4351.52      8.12       0.0    Yes
  808                  JUNCTION           4287.36      8.39       0.0    Yes
  821                  JUNCTION           4440.43     10.33       0.0    Yes
  822                  JUNCTION           4438.91     12.83       0.0    Yes
  824                  JUNCTION           4438.78     12.88       0.0    Yes
  826                  JUNCTION           4438.24     12.89       0.0    Yes
  828                  JUNCTION           4437.70     13.20       0.0    Yes
  831                  JUNCTION           4443.05     10.50       0.0    Yes
  832                  JUNCTION           4435.98     11.00       0.0    Yes
  834                  JUNCTION           4429.20     11.00       0.0    Yes
  836                  JUNCTION           4422.41     10.58       0.0    Yes
  838                  JUNCTION           4414.54     11.25       0.0    Yes
  840                  JUNCTION           4408.29     11.25       0.0    Yes
  842                  JUNCTION           4403.46     12.58       0.0    Yes
  844                  JUNCTION           4399.14     10.58       0.0    Yes
  846                  JUNCTION           4394.62      9.75       0.0    Yes
  848                  JUNCTION           4388.27     11.73       0.0    Yes
  850                  JUNCTION           4382.96     10.33       0.0    Yes
  852                  JUNCTION           4379.60      9.83       0.0    Yes
  854                  JUNCTION           4374.80      9.75       0.0    Yes
  856                  JUNCTION           4373.62     10.75       0.0    Yes
  858                  JUNCTION           4369.78      8.83       0.0    Yes
  861                  JUNCTION           4362.50     11.25       0.0    Yes
  862                  JUNCTION           4362.10     11.00       0.0    Yes
  864                  JUNCTION           4361.92     10.95       0.0    Yes
  866                  JUNCTION           4361.55     11.60       0.0    Yes
  868                  JUNCTION           4360.98     11.54       0.0    Yes
  870                  JUNCTION           4360.03     12.20       0.0    Yes
  872                  JUNCTION           4359.53     13.55       0.0    Yes
  874                  JUNCTION           4359.22     13.95       0.0    Yes
  876                  JUNCTION           4358.43     13.95       0.0    Yes
  878                  JUNCTION           4357.77     15.67       0.0    Yes
  881                  JUNCTION           4353.71      8.50       0.0    Yes
  882                  JUNCTION           4352.80      8.83       0.0    Yes
  884                  JUNCTION           4352.04      8.42       0.0    Yes
  886                  JUNCTION           4351.82      8.33       0.0    Yes
  888                  JUNCTION           4350.27      8.67       0.0    Yes
  890                  JUNCTION           4349.59      8.33       0.0    Yes
  892                  JUNCTION           4347.89      9.58       0.0    Yes
  894                  JUNCTION           4345.94      9.83       0.0    Yes
  896                  JUNCTION           4345.19     10.17       0.0    Yes
  898                  JUNCTION           4343.97      7.42       0.0    Yes
  900                  JUNCTION           4341.74      9.00       0.0    Yes
  902                  JUNCTION           4339.94      9.50       0.0    Yes
  904                  JUNCTION           4337.94      9.17       0.0    Yes
  906                  JUNCTION           4333.62      7.83       0.0    Yes
  908                  JUNCTION           4331.98     10.58       0.0    Yes
  910                  JUNCTION           4331.91     10.75       0.0    Yes
  912                  JUNCTION           4330.36      6.58       0.0    Yes
  914                  JUNCTION           4329.98      7.67       0.0    Yes
  916                  JUNCTION           4328.62     10.83       0.0    Yes
  918                  JUNCTION           4327.79     12.75       0.0    Yes
  920                  JUNCTION           4300.47      9.40       0.0    Yes
  922                  JUNCTION           4296.01     10.18       0.0    Yes
  924                  JUNCTION           4294.54      9.30       0.0    Yes
  926                  JUNCTION           4290.67      9.08       0.0    Yes
  928                  JUNCTION           4290.67      6.67       0.0    Yes
  931                  JUNCTION           4329.93     11.50       0.0    Yes
  932                  JUNCTION           4328.03     13.00       0.0    Yes
  935                  JUNCTION           4336.16      4.83       0.0    Yes
  936                  JUNCTION           4334.81      8.33       0.0    Yes
  938                  JUNCTION           4332.32     12.47       0.0    Yes
  940                  JUNCTION           4331.43     13.42       0.0    Yes
  942                  JUNCTION           4330.97     14.42       0.0    Yes
  944                  JUNCTION           4330.09     10.43       0.0    Yes
  946                  JUNCTION           4329.83      7.58       0.0    Yes
  948                  JUNCTION           4329.66      7.00       0.0    Yes
  950                  JUNCTION           4329.19      6.00       0.0    Yes
  952                  JUNCTION           4328.96      6.00       0.0    Yes
  954                  JUNCTION           4328.16      8.00       0.0    Yes
  956                  JUNCTION           4327.61     10.67       0.0    Yes
  958                  JUNCTION           4327.39     15.00       0.0    Yes
  960                  JUNCTION           4326.97     16.03       0.0    Yes
  962                  JUNCTION           4326.11     16.89       0.0    Yes
  964                  JUNCTION           4325.73     18.33       0.0    Yes
  966                  JUNCTION           4325.18     18.60       0.0    Yes
  968                  JUNCTION           4325.13     18.67       0.0    Yes
  970                  JUNCTION           4324.77     18.91       0.0    Yes
  972                  JUNCTION           4324.67     18.92       0.0    Yes
  974                  JUNCTION           4323.95     19.75       0.0    Yes
  976                  JUNCTION           4322.35     20.00       0.0    Yes
  978                  JUNCTION           4322.14     15.04       0.0    Yes
  1002                 JUNCTION           4360.70     13.36       0.0    Yes
  1004                 JUNCTION           4351.62     13.42       0.0    Yes
  1006                 JUNCTION           4349.35     10.75       0.0    Yes
  1008                 JUNCTION           4345.21     10.33       0.0    Yes
  1010                 JUNCTION           4340.14     11.00       0.0    Yes
  1012                 JUNCTION           4334.27     13.00       0.0    Yes
  1014                 JUNCTION           4334.21     13.50       0.0    Yes
  1015                 JUNCTION           4332.56     12.48       0.0    Yes
  1017                 JUNCTION           4330.27     15.00       0.0    Yes
  1018                 JUNCTION           4323.83     15.83       0.0    Yes
  1020                 JUNCTION           4322.48     11.00       0.0    Yes
  1022                 JUNCTION           4312.35     15.00       0.0    Yes
  1024                 JUNCTION           4307.29     15.75       0.0    Yes
  1026                 JUNCTION           4416.82      7.33       0.0    Yes
  1028                 JUNCTION           4409.34      7.67       0.0    Yes
  1030                 JUNCTION           4403.05     11.75       0.0    Yes
  1032                 JUNCTION           4401.85     12.00       0.0    Yes
  1034                 JUNCTION           4398.88      8.25       0.0    Yes
  1036                 JUNCTION           4385.88      7.75       0.0    Yes
  1038                 JUNCTION           4382.18      7.92       0.0    Yes
  1040                 JUNCTION           4379.10      7.92       0.0    Yes
  1042                 JUNCTION           4370.74     10.17       0.0    Yes
  1044                 JUNCTION           4363.73      8.27       0.0    Yes
  1046                 JUNCTION           4357.35      9.08       0.0    Yes
  1048                 JUNCTION           4351.69      8.75       0.0    Yes
  1050                 JUNCTION           4347.48      7.58       0.0    Yes
  1052                 JUNCTION           4342.01      7.09       0.0    Yes
  1054                 JUNCTION           4341.34      7.00       0.0    Yes
  1056                 JUNCTION           4340.24      6.96       0.0    Yes
  1058                 JUNCTION           4865.94     12.75       0.0    Yes
  1059                 JUNCTION           4861.24     12.58       0.0    Yes
  1061                 JUNCTION           4851.32     11.92       0.0    Yes
  1063                 JUNCTION           4838.94     10.83       0.0    Yes
  1065                 JUNCTION           4826.44     12.00       0.0    Yes
  1067                 JUNCTION           4825.98     12.02       0.0    Yes
  1069                 JUNCTION           4819.20     11.80       0.0    Yes
  1071                 JUNCTION           4813.57     12.95       0.0    Yes
  1073                 JUNCTION           4806.74      9.94       0.0    Yes
  1075                 JUNCTION           4794.42     10.58       0.0    Yes
  1077                 JUNCTION           4779.63     11.37       0.0    Yes
  1080                 JUNCTION           4789.00     12.99       0.0    Yes
  1081                 JUNCTION           4787.20     10.42       0.0    Yes
  1083                 JUNCTION           4784.50      9.67       0.0    Yes
  1085                 JUNCTION           4782.14     11.08       0.0    Yes
  1087                 JUNCTION           4777.23     12.77       0.0    Yes
  1089                 JUNCTION           4773.69     13.25       0.0    Yes
  1091                 JUNCTION           4771.64      8.48       0.0    Yes
  1093                 JUNCTION           4771.17      8.75       0.0    Yes
  1095                 JUNCTION           4769.68      8.92       0.0    Yes
  1097                 JUNCTION           4768.84      8.67       0.0    Yes
  1099                 JUNCTION           4767.89      9.24       0.0    Yes
  1102                 JUNCTION           4860.99     10.92       0.0    Yes
  1105                 JUNCTION           4844.82      9.18       0.0    Yes
  1107                 JUNCTION           4837.58     10.42       0.0    Yes
  1109                 JUNCTION           4830.35      9.17       0.0    Yes
  1111                 JUNCTION           4826.71     10.50       0.0    Yes
  1113                 JUNCTION           4821.77     10.83       0.0    Yes
  1115                 JUNCTION           4816.70     10.83       0.0    Yes
  1117                 JUNCTION           4811.81     10.50       0.0    Yes
  1119                 JUNCTION           4804.47     10.58       0.0    Yes
  1121                 JUNCTION           4793.81     10.75       0.0    Yes
  1123                 JUNCTION           4783.23     10.92       0.0    Yes
  1125                 JUNCTION           4773.29     11.08       0.0    Yes
  1127                 JUNCTION           4762.29     11.50       0.0    Yes
  1129                 JUNCTION           4761.42     11.00       0.0    Yes
  1131                 JUNCTION           4750.74      9.26       0.0    Yes
  1133                 JUNCTION           4740.07     11.39       0.0    Yes
  1135                 JUNCTION           4729.41     10.59       0.0    Yes
  1137                 JUNCTION           4718.74     10.26       0.0    Yes
  1139                 JUNCTION           4708.06      9.94       0.0    Yes
  1141                 JUNCTION           4697.38      9.62       0.0    Yes
  1143                 JUNCTION           4685.53     10.50       0.0    Yes
  1145                 JUNCTION           4679.30     10.25       0.0    Yes
  1147                 JUNCTION           4673.34     11.75       0.0    Yes
  1149                 JUNCTION           4667.07     12.93       0.0    Yes
  1151                 JUNCTION           4666.06     12.75       0.0    Yes
  1153                 JUNCTION           4665.51     11.25       0.0    Yes
  1155                 JUNCTION           4656.32     10.75       0.0    Yes
  1157                 JUNCTION           4647.73      9.27       0.0    Yes
  1159                 JUNCTION           4646.58     10.25       0.0    Yes
  1161                 JUNCTION           4643.76     11.42       0.0    Yes
  1163                 JUNCTION           4633.42     11.58       0.0    Yes
  1165                 JUNCTION           4625.01     11.33       0.0    Yes
  1167                 JUNCTION           4615.61     10.85       0.0    Yes
  1169                 JUNCTION           4607.34     10.08       0.0    Yes
  1171                 JUNCTION           4604.32     10.92       0.0    Yes
  1173                 JUNCTION           4600.57     11.00       0.0    Yes
  1175                 JUNCTION           4595.15     10.25       0.0    Yes
  1179                 JUNCTION           4593.63      9.25       0.0    Yes
  1181                 JUNCTION           4595.14     10.33       0.0    Yes
  1183                 JUNCTION           4591.62      7.75       0.0    Yes
  1185                 JUNCTION           4587.97     10.17       0.0    Yes
  1187                 JUNCTION           4585.75      9.92       0.0    Yes
  1189                 JUNCTION           4584.19     10.08       0.0    Yes
  1191                 JUNCTION           4581.84     10.25       0.0    Yes
  1193                 JUNCTION           4580.08     10.33       0.0    Yes
  1195                 JUNCTION           4577.66     11.01       0.0    Yes
  1197                 JUNCTION           4575.49     10.33       0.0    Yes
  1199                 JUNCTION           4574.66      9.92       0.0    Yes
  1201                 JUNCTION           4573.74      9.42       0.0    Yes
  1203                 JUNCTION           4571.83      8.42       0.0    Yes
  1205                 JUNCTION           4570.50      7.50       0.0    Yes
  1207                 JUNCTION           4567.58      8.75       0.0    Yes
  1209                 JUNCTION           4565.64     10.36       0.0    Yes
  1212                 JUNCTION           4761.97     10.72       0.0    Yes
  1214                 JUNCTION           4759.80     10.00       0.0    Yes
  1216                 JUNCTION           4756.91     10.50       0.0    Yes
  1218                 JUNCTION           4751.92      9.83       0.0    Yes
  1220                 JUNCTION           4746.44     10.33       0.0    Yes
  1222                 JUNCTION           4743.59     10.99       0.0    Yes
  1226                 JUNCTION           4740.92     10.92       0.0    Yes
  1228                 JUNCTION           4740.59     10.50       0.0    Yes
  1230                 JUNCTION           4738.13      9.54       0.0    Yes
  1232                 JUNCTION           4737.66      9.69       0.0    Yes
  1234                 JUNCTION           4732.54     10.76       0.0    Yes
  1236                 JUNCTION           4729.40     10.81       0.0    Yes
  1238                 JUNCTION           4724.30      8.70       0.0    Yes
  1240                 JUNCTION           4718.05      9.75       0.0    Yes
  1241                 JUNCTION           4716.63      9.67       0.0    Yes
  1243                 JUNCTION           4715.73     10.33       0.0    Yes
  1245                 JUNCTION           4707.63      9.83       0.0    Yes
  1247                 JUNCTION           4699.78     14.67       0.0    Yes
  1249                 JUNCTION           4698.03     12.75       0.0    Yes
  1251                 JUNCTION           4695.68     11.00       0.0    Yes
  1253                 JUNCTION           4692.20     10.42       0.0    Yes
  1255                 JUNCTION           4688.35     11.17       0.0    Yes
  1257                 JUNCTION           4685.33     11.74       0.0    Yes
  1259                 JUNCTION           4685.03     10.50       0.0    Yes
  1261                 JUNCTION           4684.53      9.75       0.0    Yes
  1263                 JUNCTION           4683.73     15.27       0.0    Yes
  1266                 JUNCTION           4521.13      8.33       0.0    Yes
  1267                 JUNCTION           4518.13      8.83       0.0    Yes
  1269                 JUNCTION           4515.72      9.75       0.0    Yes
  1271                 JUNCTION           4509.02     11.00       0.0    Yes
  1273                 JUNCTION           4504.57     13.00       0.0    Yes
  1275                 JUNCTION           4501.87     14.00       0.0    Yes
  1277                 JUNCTION           4501.30     14.15       0.0    Yes
  1279                 JUNCTION           4499.35     14.42       0.0    Yes
  1281                 JUNCTION           4498.10     15.17       0.0    Yes
  1283                 JUNCTION           4497.07     15.23       0.0    Yes
  1285                 JUNCTION           4496.29     15.00       0.0    Yes
  1287                 JUNCTION           4495.08     14.33       0.0    Yes
  1289                 JUNCTION           4492.99     13.61       0.0    Yes
  1291                 JUNCTION           4490.22     13.83       0.0    Yes
  1293                 JUNCTION           4489.69     13.96       0.0    Yes
  1295                 JUNCTION           4487.52     14.00       0.0    Yes
  1297                 JUNCTION           4486.25     13.75       0.0    Yes
  1299                 JUNCTION           4484.90     14.10       0.0    Yes
  1301                 JUNCTION           4441.32     14.67       0.0    Yes
  1303                 JUNCTION           4439.30     14.50       0.0    Yes
  1305                 JUNCTION           4438.18     15.33       0.0    Yes
  1309                 JUNCTION           4442.05     14.00       0.0    Yes
  1311                 JUNCTION           4439.11     14.08       0.0    Yes
  1313                 JUNCTION           4438.60     13.92       0.0    Yes
  1315                 JUNCTION           4436.36     15.25       0.0    Yes
  1325                 JUNCTION           4711.65     10.17       0.0    Yes
  1327                 JUNCTION           4706.46     10.85       0.0    Yes
  1329                 JUNCTION           4703.87     10.58       0.0    Yes
  1331                 JUNCTION           4699.04     10.83       0.0    Yes
  1333                 JUNCTION           4694.64     10.92       0.0    Yes
  1335                 JUNCTION           4691.11     11.00       0.0    Yes
  1337                 JUNCTION           4686.94     12.25       0.0    Yes
  1339                 JUNCTION           4685.34     11.08       0.0    Yes
  1343                 JUNCTION           4535.27     12.50       0.0    Yes
  1345                 JUNCTION           4531.51     11.49       0.0    Yes
  1347                 JUNCTION           4527.81     10.67       0.0    Yes
  1348                 JUNCTION           4524.25      8.00       0.0    Yes
  1351                 JUNCTION           4440.96      9.17       0.0    Yes
  1353                 JUNCTION           4441.42      7.33       0.0    Yes
  1355                 JUNCTION           4442.39     10.00       0.0    Yes
  1357                 JUNCTION           4443.18     13.00       0.0    Yes
  1359                 JUNCTION           4443.43     15.75       0.0    Yes
  1361                 JUNCTION           4450.01     11.75       0.0    Yes
  1363                 JUNCTION           4451.23     12.00       0.0    Yes
  1365                 JUNCTION           4452.95     12.25       0.0    Yes
  1367                 JUNCTION           4456.94     12.67       0.0    Yes
  1369                 JUNCTION           4457.41     12.83       0.0    Yes
  1371                 JUNCTION           4457.85     13.08       0.0    Yes
  1373                 JUNCTION           4458.26     14.33       0.0    Yes
  1375                 JUNCTION           4462.06     13.83       0.0    Yes
  1377                 JUNCTION           4462.08     13.75       0.0    Yes
  1379                 JUNCTION           4463.72     12.15       0.0    Yes
  1381                 JUNCTION           4467.88     13.08       0.0    Yes
  1383                 JUNCTION           4474.50     12.09       0.0    Yes
  1385                 JUNCTION           4474.80     11.33       0.0    Yes
  1387                 JUNCTION           4477.25     13.75       0.0    Yes
  1389                 JUNCTION           4479.86     11.25       0.0    Yes
  1391                 JUNCTION           4483.06     11.17       0.0    Yes
  1393                 JUNCTION           4487.26     11.07       0.0    Yes
  1395                 JUNCTION           4491.54     12.00       0.0    Yes
  1397                 JUNCTION           4504.04     12.00       0.0    Yes
  1399                 JUNCTION           4506.99     10.33       0.0    Yes
  1401                 JUNCTION           4508.94      9.00       0.0    Yes
  1403                 JUNCTION           4511.04      6.17       0.0    Yes
  1405                 JUNCTION           4514.37      8.33       0.0    Yes
  1407                 JUNCTION           4516.81      8.75       0.0    Yes
  1409                 JUNCTION           4523.11      9.42       0.0    Yes
  1411                 JUNCTION           4391.11     11.00       0.0    Yes
  1412                 JUNCTION           4388.00      7.75       0.0    Yes
  1414                 JUNCTION           4382.09      7.83       0.0    Yes
  1416                 JUNCTION           4375.70      9.50       0.0    Yes
  1418                 JUNCTION           4374.89      8.42       0.0    Yes
  1420                 JUNCTION           4370.02      9.00       0.0    Yes
  1422                 JUNCTION           4464.59     14.41       0.0    Yes
  1424                 JUNCTION           4471.03     12.33       0.0    Yes
  1426                 JUNCTION           4476.81     12.50       0.0    Yes
  1428                 JUNCTION           4484.39     12.33       0.0    Yes
  1430                 JUNCTION           4565.19      8.75       0.0    Yes
  1432                 JUNCTION           4574.99      9.20       0.0    Yes
  1434                 JUNCTION           4491.66     11.00       0.0    Yes
  1436                 JUNCTION           4498.63      9.75       0.0    Yes
  1438                 JUNCTION           4504.88      9.00       0.0    Yes
  1440                 JUNCTION           4511.64      9.58       0.0    Yes
  1442                 JUNCTION           4517.50     12.00       0.0    Yes
  1444                 JUNCTION           4575.64      8.65       0.0    Yes
  1446                 JUNCTION           4581.79      8.50       0.0    Yes
  1448                 JUNCTION           4587.17      7.30       0.0    Yes
  1450                 JUNCTION           4588.46      7.17       0.0    Yes
  1452                 JUNCTION           4589.51      7.17       0.0    Yes
  1454                 JUNCTION           4594.38      9.83       0.0    Yes
  1456                 JUNCTION           4599.31     10.33       0.0    Yes
  1458                 JUNCTION           4364.91      9.25       0.0    Yes
  1460                 JUNCTION           4363.02      8.25       0.0    Yes
  1462                 JUNCTION           4355.71      8.90       0.0    Yes
  1464                 JUNCTION           4354.10      9.70       0.0    Yes
  1466                 JUNCTION           4352.61      9.75       0.0    Yes
  1468                 JUNCTION           4352.30      9.50       0.0    Yes
  1471                 JUNCTION           4342.74     11.45       0.0    Yes
  1473                 JUNCTION           4340.78      9.35       0.0    Yes
  1475                 JUNCTION           4334.37     12.00       0.0    Yes
  1477                 JUNCTION           4333.04     12.80       0.0    Yes
  1485                 JUNCTION           4315.39     11.75       0.0    Yes
  1487                 JUNCTION           4314.67      7.35       0.0    Yes
  1492                 JUNCTION           4581.31     14.67       0.0    Yes
  1495                 JUNCTION           4558.92     13.00       0.0    Yes
  1496                 JUNCTION           4550.86     14.17       0.0    Yes
  1498                 JUNCTION           4550.24     14.56       0.0    Yes
  1500                 JUNCTION           4549.10      9.17       0.0    Yes
  1502                 JUNCTION           4538.18      9.50       0.0    Yes
  1504                 JUNCTION           4531.94      9.50       0.0    Yes
  1506                 JUNCTION           4524.36     11.75       0.0    Yes
  1508                 JUNCTION           4523.72     11.88       0.0    Yes
  1512                 JUNCTION           4511.20      6.75       0.0    Yes
  1515                 JUNCTION           4444.87     11.33       0.0    Yes
  1517                 JUNCTION           4292.14     13.00       0.0    Yes
  1519                 JUNCTION           4288.36     11.08       0.0    Yes
  1521                 JUNCTION           4287.49      8.58       0.0    Yes
  1525                 JUNCTION           4334.14     13.00       0.0    Yes
  1530                 JUNCTION           4748.22     14.20       0.0    Yes
  1532                 JUNCTION           4755.73     13.67       0.0    Yes
  1534                 JUNCTION           4760.45     13.30       0.0    Yes
  1536                 JUNCTION           4762.55     13.55       0.0    Yes
  1538                 JUNCTION           4426.33     17.14       0.0    Yes
  1540                 JUNCTION           4422.73     15.82       0.0    Yes
  1542                 JUNCTION           4416.85     15.27       0.0    Yes
  1544                 JUNCTION           4413.67     14.71       0.0    Yes
  1546                 JUNCTION           4410.48     14.49       0.0    Yes
  1548                 JUNCTION           4406.19     14.25       0.0    Yes
  1550                 JUNCTION           4402.38     14.45       0.0    Yes
  1552                 JUNCTION           4398.57     15.77       0.0    Yes
  1554                 JUNCTION           4390.81     19.20       0.0    Yes
  1556                 JUNCTION           4388.86     15.18       0.0    Yes
  1558                 JUNCTION           4384.37     14.75       0.0    Yes
  1560                 JUNCTION           4378.96     14.12       0.0    Yes
  1562                 JUNCTION           4374.20     13.73       0.0    Yes
  1564                 JUNCTION           4367.57     15.70       0.0    Yes
  1566                 JUNCTION           4365.03     12.37       0.0    Yes
  1568                 JUNCTION           4364.71     12.16       0.0    Yes
  1571                 JUNCTION           4757.16     11.84       0.0    Yes
  1575                 JUNCTION           4605.22     14.78       0.0    Yes
  1578                 JUNCTION           4879.10     15.18       0.0    Yes
  1579                 JUNCTION           4870.65     14.08       0.0    Yes
  1585                 JUNCTION           4483.97     14.03       0.0    Yes
  1587                 JUNCTION           4482.91     14.09       0.0    Yes
  1593                 JUNCTION           4558.50     11.50       0.0    Yes
  1595                 JUNCTION           4556.40      9.78       0.0    Yes
  1597                 JUNCTION           4558.62      9.65       0.0    Yes
  1598                 JUNCTION           4557.46      9.05       0.0    Yes
  1601                 JUNCTION           4554.63     12.55       0.0    Yes
  1603                 JUNCTION           4552.81     13.10       0.0    Yes
  1605                 JUNCTION           4551.01     15.98       0.0    Yes
  1607                 JUNCTION           4548.97     21.36       0.0    Yes
  1609                 JUNCTION           4566.82      7.20       0.0    Yes
  1610                 JUNCTION           4564.47     10.20       0.0    Yes
  1612                 JUNCTION           4560.18     12.30       0.0    Yes
  1615                 JUNCTION           4547.53     19.72       0.0    Yes
  1617                 JUNCTION           4545.84     20.55       0.0    Yes
  1619                 JUNCTION           4544.45     21.20       0.0    Yes
  1621                 JUNCTION           4542.90     22.05       0.0    Yes
  1623                 JUNCTION           4541.69     22.50       0.0    Yes
  1625                 JUNCTION           4538.04     25.30       0.0    Yes
  1627                 JUNCTION           4534.58     24.85       0.0    Yes
  1629                 JUNCTION           4533.04     25.30       0.0    Yes
  1632                 JUNCTION           4663.11     12.89       0.0    Yes
  1634                 JUNCTION           4654.09     13.15       0.0    Yes
  1636                 JUNCTION           4652.88     12.58       0.0    Yes
  1638                 JUNCTION           4646.76     13.25       0.0    Yes
  1640                 JUNCTION           4645.66     14.04       0.0    Yes
  1642                 JUNCTION           4640.98     14.83       0.0    Yes
  1644                 JUNCTION           4628.21     15.52       0.0    Yes
  1648                 JUNCTION           4392.67     10.88       0.0    Yes
  1649                 JUNCTION           4392.09     10.91       0.0    Yes
  1656                 JUNCTION           4320.84     16.84       0.0    Yes
  1658                 JUNCTION           4623.61     14.58       0.0    Yes
  1661                 JUNCTION           4358.94      9.92       0.0    Yes
  1664                 JUNCTION           4364.02     11.20       0.0    Yes
  1666                 JUNCTION           4692.43     14.00       0.0    Yes
  1667                 JUNCTION           4852.25     10.70       0.0    Yes
  1668                 JUNCTION           4337.62     14.17       0.0    Yes
  1669                 JUNCTION           4334.23     12.00       0.0    Yes
  1671                 JUNCTION           4769.04     13.52       0.0    Yes
  1673                 JUNCTION           4788.12     11.20       0.0    Yes
  1675                 JUNCTION           4789.90     11.14       0.0    Yes
  1677                 JUNCTION           4793.15     11.04       0.0    Yes
  1679                 JUNCTION           4799.60     11.05       0.0    Yes
  1681                 JUNCTION           4810.23     11.04       0.0    Yes
  1683                 JUNCTION           4819.66     12.96       0.0    Yes
  1685                 JUNCTION           4826.67     14.02       0.0    Yes
  1687                 JUNCTION           4832.28     13.08       0.0    Yes
  1689                 JUNCTION           4840.62     12.05       0.0    Yes
  1691                 JUNCTION           4849.27     11.99       0.0    Yes
  1693                 JUNCTION           4857.84     13.08       0.0    Yes
  1695                 JUNCTION           4866.76     11.08       0.0    Yes
  1696                 JUNCTION           4571.72      2.00       0.0    Yes
  1698                 JUNCTION           4443.45     12.71       0.0    Yes
  1699                 JUNCTION           4334.44      8.00       0.0    Yes
  1700                 JUNCTION           4493.58     13.67       0.0    Yes
  1701                 JUNCTION           4492.48     13.83       0.0    Yes
  1707                 JUNCTION           4363.01     10.42       0.0    Yes
  1709                 JUNCTION           4365.85     11.00       0.0    Yes
  1711                 JUNCTION           4367.76     12.50       0.0    Yes
  1713                 JUNCTION           4434.97     16.38       0.0    Yes
  1715                 JUNCTION           4536.24     11.50       0.0    Yes
  1717                 JUNCTION           4554.02     10.08       0.0    Yes
  1718                 JUNCTION           4551.27     11.17       0.0    Yes
  1720                 JUNCTION           4549.86     10.50       0.0    Yes
  1722                 JUNCTION           4546.69     11.25       0.0    Yes
  1724                 JUNCTION           4545.31      9.92       0.0    Yes
  1727                 JUNCTION           4405.04     11.05       0.0    Yes
  1729                 JUNCTION           4593.22      8.78       0.0    Yes
  1731                 JUNCTION           4887.71     15.34       0.0    Yes
  1733                 JUNCTION           4895.16     17.27       0.0    Yes
  1735                 JUNCTION           4903.44     16.04       0.0    Yes
  1737                 JUNCTION           4907.86     20.41       0.0    Yes
  1739                 JUNCTION           4921.86     14.76       0.0    Yes
  1741                 JUNCTION           4929.12     14.27       0.0    Yes
  1743                 JUNCTION           4938.07     15.80       0.0    Yes
  1745                 JUNCTION           4952.62     18.29       0.0    Yes
  1747                 JUNCTION           4969.66     14.88       0.0    Yes
  1774                 JUNCTION           4973.79     18.30       0.0    Yes
  1775                 JUNCTION           4990.19     14.87       0.0    Yes
  1776                 JUNCTION           5002.17     14.52       0.0    Yes
  1777                 JUNCTION           5008.79     14.68       0.0    Yes
  1778                 JUNCTION           5012.99     14.47       0.0    Yes
  1779                 JUNCTION           5016.66     14.98       0.0    Yes
  1780                 JUNCTION           5019.70     13.85       0.0    Yes
  1781                 JUNCTION           5029.75     14.13       0.0    Yes
  1782                 JUNCTION           5031.92     16.08       0.0    Yes
  1783                 JUNCTION           5033.85     15.08       0.0    Yes
  1784                 JUNCTION           5035.92     18.27       0.0    Yes
  1785                 JUNCTION           5037.49      9.99       0.0    Yes
  1786                 JUNCTION           5039.04      9.16       0.0    Yes
  1787                 JUNCTION           5039.83     13.71       0.0    Yes
  JCT-10               JUNCTION           4692.24     11.76       0.0    Yes
  JCT-100              JUNCTION           4934.00     10.00       0.0    Yes
  JCT-101              JUNCTION           4601.50      9.00       0.0
  JCT-102              JUNCTION           4887.00     10.00       0.0    Yes
  JCT-103              JUNCTION           4603.87     10.80       0.0
  JCT-104              JUNCTION           4571.00     10.00       0.0    Yes
  JCT-105              JUNCTION           4606.07      7.90       0.0
  JCT-106              JUNCTION           4524.00      0.67       0.0    Yes
  JCT-108              JUNCTION           4709.00     10.00       0.0    Yes
  JCT-110              JUNCTION           4590.10     10.40       0.0
  JCT-112              JUNCTION           4587.10      1.00       0.0
  JCT-114              JUNCTION           4584.20      5.80       0.0
  JCT-116              JUNCTION           4607.19     11.30       0.0    Yes
  JCT-12               JUNCTION           4764.05     17.00       0.0    Yes
  JCT-14               JUNCTION           4795.15     10.85       0.0
  JCT-16               JUNCTION           4799.57      6.43       0.0    Yes
  JCT-18               JUNCTION           4838.00     12.00       0.0    Yes
  JCT-20               JUNCTION           4847.00     14.00       0.0    Yes
  JCT-22               JUNCTION           4916.28     11.67       0.0    Yes
  JCT-24               JUNCTION           4951.47     12.20       0.0    Yes
  JCT-26               JUNCTION           4911.61     10.00       0.0    Yes
  JCT-28               JUNCTION           4911.04     10.00       0.0    Yes
  JCT-30               JUNCTION           4910.44     10.00       0.0
  JCT-32               JUNCTION           4905.08     10.00       0.0    Yes
  JCT-34               JUNCTION           4900.44     10.00       0.0    Yes
  JCT-36               JUNCTION           4891.69     10.00       0.0    Yes
  JCT-38               JUNCTION           4889.95     10.00       0.0    Yes
  JCT-40               JUNCTION           4874.50     10.00       0.0    Yes
  JCT-42               JUNCTION           4859.00     10.00       0.0    Yes
  JCT-48               JUNCTION           4605.00     15.89       0.0
  JCT-50               JUNCTION           4603.25     16.75       0.0    Yes
  JCT-52               JUNCTION           4601.30     18.70       0.0    Yes
  JCT-54               JUNCTION           4596.80     11.20       0.0    Yes
  JCT-56               JUNCTION           4593.40     11.10       0.0
  JCT-60               JUNCTION           4576.70      8.60       0.0
  JCT-62               JUNCTION           4610.54      4.45       0.0    Yes
  JCT-64               JUNCTION           4606.80      8.20       0.0    Yes
  JCT-66               JUNCTION           4604.90     10.10       0.0    Yes
  JCT-68               JUNCTION           4603.30     17.62       0.0    Yes
  JCT-70               JUNCTION           4570.00     15.00       0.0    Yes
  JCT-72               JUNCTION           4567.00     13.00       0.0
  JCT-74               JUNCTION           4575.00     11.00       0.0    Yes
  JCT-76               JUNCTION           4577.00      8.00       0.0
  JCT-78               JUNCTION           4575.00      6.00       0.0    Yes
  JCT-80               JUNCTION           4884.76      9.00       0.0    Yes
  JCT-82               JUNCTION           4883.65      7.00       0.0    Yes
  JCT-84               JUNCTION           4941.50     10.00       0.0    Yes
  JCT-86               JUNCTION           4973.00     10.00       0.0    Yes
  JCT-88               JUNCTION           4599.00     10.20       0.0    Yes
  JCT-90               JUNCTION           5024.00     10.00       0.0    Yes
  JCT-90TH3900         JUNCTION           4659.40      9.45       0.0
  JCT-90TH44           JUNCTION           4664.62     11.30       0.0
  JCT-92               JUNCTION           5007.00     10.00       0.0    Yes
  JCT-94               JUNCTION           5003.00     10.00       0.0    Yes
  JCT-96               JUNCTION           4988.00     10.00       0.0    Yes
  JCT-97               JUNCTION           4654.68      9.70       0.0
  JCT-98               JUNCTION           4959.00     10.00       0.0    Yes
  JCT-99               JUNCTION           4623.00     11.00       0.0    Yes
  PT2420               JUNCTION              0.00      0.00       0.0
  PT2421               JUNCTION              0.00      0.00       0.0
  PT2422               JUNCTION              0.00      0.00       0.0
  PT2423               JUNCTION              0.00      0.00       0.0
  PT2424               JUNCTION              0.00      0.00       0.0
  PT2425               JUNCTION              0.00      0.00       0.0
  PT2426               JUNCTION              0.00      0.00       0.0
  PT2427               JUNCTION              0.00      0.00       0.0
  PT2428               JUNCTION              0.00      0.00       0.0
  PT2429               JUNCTION              0.00      0.00       0.0
  PT2430               JUNCTION              0.00      0.00       0.0
  PT2431               JUNCTION           4726.16     10.82       0.0
  PT2432               JUNCTION           4716.68      9.80       0.0
  PT2433               JUNCTION           4705.67     10.60       0.0
  PT2434               JUNCTION           4697.89     10.70       0.0
  PT2435               JUNCTION           4690.20     10.70       0.0
  PT2436               JUNCTION           4684.93      8.80       0.0
  PT2437               JUNCTION           4676.98      7.70       0.0
  PT2438               JUNCTION           4658.00     10.68       0.0
  PT2439               JUNCTION           4638.54     11.50       0.0
  PT2440               JUNCTION           4635.30     11.01       0.0
  PT2441               JUNCTION           4626.54     10.80       0.0
  PT2442               JUNCTION           4620.63     11.64       0.0
  PT2443               JUNCTION           4619.00     11.00       0.0
  PT2444               JUNCTION           4618.65     11.20       0.0
  PT2445               JUNCTION           4612.20     11.80       0.0
  PT2446               JUNCTION           4608.76     10.60       0.0
  PT2448               JUNCTION           4606.56      8.10       0.0
  PT2459               JUNCTION           4642.58     11.01       0.0
  PT2460               JUNCTION           4653.60     11.29       0.0
  PT2461               JUNCTION           4652.51     10.90       0.0
  PT2462               JUNCTION           4646.52     11.59       0.0
  PT2463               JUNCTION           4643.76     11.50       0.0
  OFALL-2              OUTFALL               0.00      1.00       0.0
  OFALL-4              OUTFALL            4275.00      3.00       0.0
  OFALL-6              OUTFALL            4271.00      2.50       0.0
  OFALL-90             OUTFALL            4300.00      1.25       0.0
  
  
  ************
  Link Summary
  ************
  Name             From Node        To Node          Type            Length    %Slope Roughness
  ---------------------------------------------------------------------------------------------
  1                2                3                CONDUIT          399.3    2.7186    0.0130
  10               9                11               CONDUIT          400.2    5.4078    0.0130
  100              99               101              CONDUIT          486.3    1.1496    0.0130
  1001             1002             605              CONDUIT          196.0    1.0662    0.0130
  1003             605              1004             CONDUIT          685.1    1.0203    0.0130
  1005             1004             1006             CONDUIT          401.2    0.5659    0.0130
  1007             1006             1008             CONDUIT          399.6    1.0360    0.0130
  1009             1008             1010             CONDUIT          399.0    1.2709    0.0130
  1011             1010             1012             CONDUIT          401.4    1.4624    0.0130
  1013             1014             1015             CONDUIT          322.0    0.5124    0.0130
  1016             1017             1018             CONDUIT          718.2    0.8967    0.0130
  1019             1018             1020             CONDUIT          282.8    0.4773    0.0130
  102              101              103              CONDUIT          497.5    1.3468    0.0130
  1021             1020             1022             CONDUIT          190.9    5.3152    0.0130
  1023             1022             1024             CONDUIT          112.1    4.5168    0.0130
  1025             287              1026             CONDUIT          496.7    1.5644    0.0130
  1027             1026             1028             CONDUIT          510.6    1.4650    0.0130
  1029             1028             1030             CONDUIT          214.5    2.9331    0.0130
  1031             1030             1032             CONDUIT           74.1    1.6192    0.0130
  1033             1032             1034             CONDUIT          430.2    0.6903    0.0130
  1035             1034             1036             CONDUIT          997.8    1.3029    0.0130
  1037             1036             1038             CONDUIT          273.4    1.3536    0.0130
  1039             1038             1040             CONDUIT          227.3    1.3550    0.0130
  104              103              105              CONDUIT          515.1    1.7787    0.0130
  1041             1040             1042             CONDUIT          448.4    1.8648    0.0130
  1043             1042             1044             CONDUIT          549.3    1.2762    0.0130
  1045             1044             1046             CONDUIT          500.0    1.2761    0.0130
  1047             1046             1048             CONDUIT          505.7    1.1193    0.0130
  1049             1048             1050             CONDUIT          497.5    0.8463    0.0130
  1051             1050             1052             CONDUIT          497.5    1.0995    0.0130
  1053             1052             1054             CONDUIT           83.6    0.8133    0.0130
  1055             1054             1056             CONDUIT           18.9    5.8281    0.0130
  1057             1058             1059             CONDUIT          168.3    2.7930    0.0130
  106              105              107              CONDUIT          499.6    1.3752    0.0130
  1060             1059             1061             CONDUIT          494.2    2.0076    0.0130
  1062             1061             1063             CONDUIT          501.8    2.4679    0.0130
  1064             1063             1065             CONDUIT          502.2    2.4896    0.0130
  1066             1065             1067             CONDUIT           25.7    1.7917    0.0130
  1068             1067             1069             CONDUIT          378.2    1.7931    0.0130
  1070             1069             1071             CONDUIT          314.1    1.7926    0.0130
  1072             1071             1073             CONDUIT          495.3    1.3790    0.0130
  1074             1073             1075             CONDUIT          392.3    3.1421    0.0130
  1076             1075             1077             CONDUIT          470.6    3.1442    0.0130
  1078             1077             371              CONDUIT          413.8    3.1404    0.0130
  1079             1080             1081             CONDUIT          286.4    0.6286    0.0130
  108              107              109              CONDUIT          228.4    1.0113    0.0130
  1082             1081             1083             CONDUIT          403.8    0.6686    0.0130
  1084             1083             1085             CONDUIT          401.3    0.5880    0.0130
  1086             1085             1087             CONDUIT          469.6    1.0457    0.0130
  1088             1087             1089             CONDUIT          338.9    1.0446    0.0130
  1090             1089             1091             CONDUIT          403.7    0.5078    0.0130
  1092             1091             1093             CONDUIT           92.8    0.5064    0.0130
  1094             1093             1095             CONDUIT          248.7    0.5992    0.0130
  1096             1095             1097             CONDUIT          160.0    0.5250    0.0130
  1098             1097             1099             CONDUIT          403.6    0.2354    0.0130
  110              109              111              CONDUIT          496.1    1.1409    0.0130
  1100             1099             371              CONDUIT          269.9    0.4631    0.0130
  1101             1102             1667             CONDUIT          399.2    2.1899    0.0130
  1104             1667             1105             CONDUIT          411.2    1.8073    0.0130
  1106             1105             1107             CONDUIT          400.0    1.8103    0.0130
  1108             1107             1109             CONDUIT          400.0    1.8078    0.0130
  1110             1109             1111             CONDUIT          181.5    2.0060    0.0130
  1112             1111             1113             CONDUIT          297.4    1.6613    0.0130
  1114             1113             1115             CONDUIT          400.9    1.2647    0.0130
  1116             1115             1117             CONDUIT          399.5    1.2242    0.0130
  1118             1117             1119             CONDUIT          400.1    1.8346    0.0130
  112              111              113              CONDUIT          501.3    1.1412    0.0130
  1120             1119             1121             CONDUIT          400.8    2.6603    0.0130
  1122             1121             1123             CONDUIT          401.2    2.6380    0.0130
  1124             1123             1125             CONDUIT          397.0    2.5049    0.0130
  1126             1125             1127             CONDUIT          355.5    3.0954    0.0130
  1128             1127             1129             CONDUIT           44.6    1.9515    0.0130
  1130             1129             1131             CONDUIT          400.4    2.6684    0.0130
  1132             1131             1133             CONDUIT          400.0    2.6684    0.0130
  1134             1133             1135             CONDUIT          399.5    2.6694    0.0130
  1136             1135             1137             CONDUIT          400.0    2.6685    0.0130
[...]
  825                     1.00   0.00  0.00  0.00  1.00  0.00  0.00  0.00  0.00  0.00
  827                     1.00   0.00  0.00  0.00  1.00  0.00  0.00  0.00  0.99  0.00
  829                     1.00   0.00  0.00  0.00  0.00  1.00  0.00  0.00  0.00  0.00
  83                      1.00   0.00  0.00  0.00  0.00  1.00  0.00  0.00  0.00  0.00
  830                     1.00   1.00  0.00  0.00  0.00  0.00  0.00  0.00  0.00  0.00
  833                     1.00   1.00  0.00  0.00  0.00  0.00  0.00  0.00  0.00  0.00
  835                     1.00   1.00  0.00  0.00  0.00  0.00  0.00  0.00  0.00  0.00
  837                     1.00   0.00  1.00  0.00  0.00  0.00  0.00  0.00  0.00  0.00
  839                     1.00   0.00  0.00  0.00  0.00  1.00  0.00  0.00  0.99  0.00
  841                     1.00   0.00  0.00  0.00  1.00  0.00  0.00  0.00  1.00  0.00
  843                     1.00   0.00  0.00  0.00  0.00  1.00  0.00  0.00  0.05  0.00
  845                     1.00   0.00  0.00  0.00  0.00  1.00  0.00  0.00  0.98  0.00
  847                     1.00   0.00  0.00  0.00  0.00  1.00  0.00  0.00  0.86  0.00
  849                     1.00   0.00  0.00  0.00  0.00  1.00  0.00  0.00  0.99  0.00
  851                     1.00   0.00  0.00  0.00  0.00  1.00  0.00  0.00  0.00  0.00
  853                     1.00   0.00  0.00  0.00  0.00  1.00  0.00  0.00  0.00  0.00
  855                     1.36   0.00  0.00  0.00  0.03  0.97  0.00  0.00  1.00  0.00
  857                     1.00   0.00  0.00  0.00  0.00  1.00  0.00  0.00  1.00  0.00
  859                     1.00   0.00  0.00  0.00  1.00  0.00  0.00  0.00  1.00  0.00
  86                      2.32   0.00  0.00  0.00  0.00  1.00  0.00  0.00  1.00  0.00
  860                     1.00   1.00  0.00  0.00  0.00  0.00  0.00  0.00  0.00  0.00
  863                     1.00   0.00  1.00  0.00  0.00  0.00  0.00  0.00  0.00  0.00
  865                     1.00   0.00  0.00  0.00  1.00  0.00  0.00  0.00  0.99  0.00
  867                     1.00   0.00  0.00  0.00  1.00  0.00  0.00  0.00  0.00  0.00
  869                     1.00   0.00  0.00  0.00  1.00  0.00  0.00  0.00  0.98  0.00
  871                     1.00   0.00  0.00  0.00  1.00  0.00  0.00  0.00  1.00  0.00
  873                     1.00   0.00  0.00  0.00  1.00  0.00  0.00  0.00  1.00  0.00
  875                     1.00   0.00  0.00  0.00  1.00  0.00  0.00  0.00  0.99  0.00
  877                     1.00   0.00  0.00  0.00  1.00  0.00  0.00  0.00  0.00  0.00
  879                     1.00   0.00  0.00  0.00  1.00  0.00  0.00  0.00  0.99  0.00
  88                     12.93   0.00  0.00  0.00  0.00  1.00  0.00  0.00  1.00  0.00
  880                     1.00   0.00  1.00  0.00  0.00  0.00  0.00  0.00  0.00  0.00
  883                     1.00   0.00  0.00  0.00  1.00  0.00  0.00  0.00  0.00  0.00
  885                     6.89   0.00  0.00  0.00  0.00  1.00  0.00  0.00  1.00  0.00
  887                     1.00   0.00  0.00  0.00  1.00  0.00  0.00  0.00  1.00  0.00
  889                     1.00   0.00  0.00  0.00  1.00  0.00  0.00  0.00  0.00  0.00
  891                     1.00   0.00  0.00  0.00  1.00  0.00  0.00  0.00  1.00  0.00
  893                     1.00   0.00  0.00  0.00  0.00  1.00  0.00  0.00  0.00  0.00
  895                     1.34   0.00  0.00  0.00  1.00  0.00  0.00  0.00  1.00  0.00
  897                     1.00   0.00  0.00  0.00  1.00  0.00  0.00  0.00  0.00  0.00
  899                     1.00   0.00  0.00  0.00  1.00  0.00  0.00  0.00  1.00  0.00
  90                      1.00   0.00  0.00  0.00  0.00  1.00  0.00  0.00  1.00  0.00
  901                     1.00   0.00  0.00  0.00  0.00  1.00  0.00  0.00  0.00  0.00
  903                     1.00   0.00  0.00  0.00  0.00  1.00  0.00  0.00  1.00  0.00
  9048                    1.00   0.00  0.00  0.00  0.00  1.00  0.00  0.00  0.97  0.00
  905                     1.00   0.00  0.00  0.00  1.00  0.00  0.00  0.00  1.00  0.00
  907                     1.00   0.00  0.00  0.00  1.00  0.00  0.00  0.00  0.99  0.00
  909                     1.91   0.00  0.00  0.00  1.00  0.00  0.00  0.00  0.00  0.00
  90TH                    1.00   0.01  0.00  0.00  0.00  0.99  0.00  0.00  0.00  0.00
  90TH44W                 1.00   0.00  0.00  0.00  0.00  0.99  0.00  0.00  0.98  0.00
  911                     1.00   0.00  0.00  0.00  1.00  0.00  0.00  0.00  0.00  0.00
  913                     2.25   0.00  0.00  0.00  1.00  0.00  0.00  0.00  0.99  0.00
  915                     1.00   0.00  0.00  0.00  1.00  0.00  0.00  0.00  1.00  0.00
  917                     1.00   0.00  0.00  0.00  1.00  0.00  0.00  0.00  0.00  0.00
  919                     1.00   0.00  0.00  0.00  0.00  1.00  0.00  0.00  0.99  0.00
  92                      1.00   0.00  0.00  0.00  0.00  1.00  0.00  0.00  0.99  0.00
  921                     1.00   0.00  0.00  0.00  0.00  1.00  0.00  0.00  0.00  0.00
  923                     1.21   0.00  0.00  0.00  0.00  1.00  0.00  0.00  0.00  0.00
  925                     1.00   0.00  0.00  0.00  1.00  0.00  0.00  0.00  0.99  0.00
  927                     1.00   0.00  0.00  0.00  1.00  0.00  0.00  0.00  0.00  0.00
  930                     1.00   0.70  0.30  0.00  0.00  0.00  0.00  0.00  0.00  0.00
  933                     1.00   0.00  0.70  0.00  0.30  0.00  0.00  0.00  0.72  0.00
  934                     1.00   0.00  1.00  0.00  0.00  0.00  0.00  0.00  0.00  0.00
  937                     1.00   0.00  0.00  0.00  0.00  1.00  0.00  0.00  0.00  0.00
  939                     1.00   0.00  0.00  0.00  1.00  0.00  0.00  0.00  1.00  0.00
  94                      1.00   0.00  0.00  0.00  0.00  1.00  0.00  0.00  0.73  0.00
  941                     1.00   0.00  0.00  0.00  1.00  0.00  0.00  0.00  0.00  0.00
  943                     1.00   0.00  0.00  0.00  1.00  0.00  0.00  0.00  0.99  0.00
  945                     1.00   0.00  0.00  0.00  1.00  0.00  0.00  0.00  1.00  0.00
  947                     1.00   0.00  0.00  0.00  1.00  0.00  0.00  0.00  0.65  0.00
  949                     1.00   0.00  0.00  0.00  1.00  0.00  0.00  0.00  0.00  0.00
  951                     5.72   0.00  0.00  0.00  1.00  0.00  0.00  0.00  1.00  0.00
  953                     1.00   0.00  0.00  0.00  1.00  0.00  0.00  0.00  0.00  0.00
  955                     1.00   0.00  0.00  0.00  1.00  0.00  0.00  0.00  0.99  0.00
  957                     1.00   0.00  0.00  0.00  1.00  0.00  0.00  0.00  0.00  0.00
  959                     1.00   0.00  0.00  0.00  1.00  0.00  0.00  0.00  1.00  0.00
  96                      4.54   0.00  0.00  0.00  0.00  1.00  0.00  0.00  0.00  0.00
  961                     1.00   0.00  0.00  0.00  1.00  0.00  0.00  0.00  1.00  0.00
  963                     1.00   0.00  0.00  0.00  1.00  0.00  0.00  0.00  0.99  0.00
  965                     1.00   0.00  0.00  0.00  1.00  0.00  0.00  0.00  1.00  0.00
  967                     1.08   0.00  0.00  0.00  1.00  0.00  0.00  0.00  0.00  0.00
  969                     1.00   0.00  0.00  0.00  1.00  0.00  0.00  0.00  0.99  0.00
  971                     1.00   0.00  0.00  0.00  1.00  0.00  0.00  0.00  0.00  0.00
  973                     1.00   0.00  0.00  0.00  1.00  0.00  0.00  0.00  0.00  0.00
  975                     1.00   0.00  0.00  0.00  1.00  0.00  0.00  0.00  1.00  0.00
  977                     1.00   0.00  0.00  0.00  1.00  0.00  0.00  0.00  0.00  0.00
  979                     1.00   0.00  0.00  0.00  1.00  0.00  0.00  0.00  0.99  0.00
  98                      1.00   0.00  0.00  0.00  0.00  1.00  0.00  0.00  0.98  0.00
  CDT-101                 1.00   1.00  0.00  0.00  0.00  0.00  0.00  0.00  0.00  0.00
  CDT-103                 1.00   1.00  0.00  0.00  0.00  0.00  0.00  0.00  0.00  0.00
  CDT-105                 1.00   1.00  0.00  0.00  0.00  0.00  0.00  0.00  0.00  0.00
  CDT-107                 1.00   1.00  0.00  0.00  0.00  0.00  0.00  0.00  0.00  0.00
  CDT-109                 1.00   1.00  0.00  0.00  0.00  0.00  0.00  0.00  0.00  0.00
  CDT-11                  3.95   0.00  0.00  0.00  0.00  1.00  0.00  0.00  0.00  0.00
  CDT-111                 1.00   1.00  0.00  0.00  0.00  0.00  0.00  0.00  0.00  0.00
  CDT-113                 1.00   1.00  0.00  0.00  0.00  0.00  0.00  0.00  0.00  0.00
  CDT-114                 1.00   0.00  0.01  0.00  0.99  0.00  0.00  0.00  0.99  0.00
  CDT-115                 1.00   1.00  0.00  0.00  0.00  0.00  0.00  0.00  0.00  0.00
  CDT-117                 1.00   1.00  0.00  0.00  0.00  0.00  0.00  0.00  0.00  0.00
  CDT-118                 1.00   0.00  0.00  0.00  0.00  1.00  0.00  0.00  0.00  0.00
  CDT-119                 1.00   1.00  0.00  0.00  0.00  0.00  0.00  0.00  0.00  0.00
  CDT-120                 1.00   0.00  0.00  0.00  0.00  1.00  0.00  0.00  0.00  0.00
  CDT-121                 1.00   0.00  1.00  0.00  0.00  0.00  0.00  0.00  0.00  0.00
  CDT-122                 3.95   0.00  0.00  0.00  0.00  1.00  0.00  0.00  0.00  0.00
  CDT-123                 1.00   1.00  0.00  0.00  0.00  0.00  0.00  0.00  0.00  0.00
  CDT-124                 3.18   0.00  0.00  0.00  0.00  1.00  0.00  0.00  1.00  0.00
  CDT-125                 1.00   0.00  1.00  0.00  0.00  0.00  0.00  0.00  0.00  0.00
  CDT-126                 1.00   0.00  0.00  0.00  0.00  1.00  0.00  0.00  1.00  0.00
  CDT-127                 3.68   1.00  0.00  0.00  0.00  0.00  0.00  0.00  0.00  0.00
  CDT-128                 1.00   0.00  0.00  0.00  0.00  1.00  0.00  0.00  1.00  0.00
  CDT-129                 1.00   1.00  0.00  0.00  0.00  0.00  0.00  0.00  0.00  0.00
  CDT-13                  5.98   0.00  0.00  0.00  0.00  1.00  0.00  0.00  0.95  0.00
  CDT-130                 1.00   0.00  0.00  0.00  0.00  1.00  0.00  0.00  1.00  0.00
  CDT-131                 1.00   1.00  0.00  0.00  0.00  0.00  0.00  0.00  0.00  0.00
  CDT-132                 2.14   0.00  0.00  0.00  0.00  1.00  0.00  0.00  0.00  0.00
  CDT-133                 1.00   1.00  0.00  0.00  0.00  0.00  0.00  0.00  0.00  0.00
  CDT-134                 1.00   0.00  0.00  0.00  0.00  1.00  0.00  0.00  1.00  0.00
  CDT-135                 1.00   1.00  0.00  0.00  0.00  0.00  0.00  0.00  0.00  0.00
  CDT-137                 1.33   1.00  0.00  0.00  0.00  0.00  0.00  0.00  0.00  0.00
  CDT-139                 1.55   0.01  0.99  0.00  0.00  0.00  0.00  0.00  0.00  0.00
  CDT-15                  1.10   0.00  0.00  0.00  0.00  1.00  0.00  0.00  0.00  0.00
  CDT-165                 1.00   0.00  0.00  0.00  0.00  1.00  0.00  0.00  0.00  0.00
  CDT-167                 1.00   0.00  0.00  0.00  0.00  1.00  0.00  0.00  0.99  0.00
  CDT-169                 1.77   0.00  0.00  0.00  0.00  1.00  0.00  0.00  0.99  0.00
  CDT-17                  1.77   0.00  0.00  0.00  0.00  1.00  0.00  0.00  0.02  0.00
  CDT-171                 1.00   0.00  0.00  0.00  0.00  1.00  0.00  0.00  0.00  0.00
  CDT-173                 1.00   0.00  0.00  0.00  0.00  1.00  0.00  0.00  0.99  0.00
  CDT-175                 1.05   0.00  1.00  0.00  0.00  0.00  0.00  0.00  0.00  0.00
  CDT-177                 1.00   0.00  0.00  0.00  0.00  1.00  0.00  0.00  0.99  0.00
  CDT-179                 1.00   0.00  0.00  0.00  0.88  0.12  0.00  0.00  0.00  0.00
  CDT-181                 1.49   0.00  0.00  0.00  0.00  1.00  0.00  0.00  0.00  0.00
  CDT-183                 1.00   0.00  0.00  0.00  0.00  1.00  0.00  0.00  0.99  0.00
  CDT-185                 1.00   0.00  0.00  0.00  0.00  1.00  0.00  0.00  0.98  0.00
  CDT-187                 1.00   0.00  0.00  0.00  0.00  1.00  0.00  0.00  0.00  0.00
  CDT-19                  1.00   0.00  0.00  0.00  1.00  0.00  0.00  0.00  0.02  0.00
  CDT-21                  1.00   1.00  0.00  0.00  0.00  0.00  0.00  0.00  0.00  0.00
  CDT-23                  1.00   1.00  0.00  0.00  0.00  0.00  0.00  0.00  0.00  0.00
  CDT-25                  1.00   1.00  0.00  0.00  0.00  0.00  0.00  0.00  0.00  0.00
  CDT-27                  1.00   1.00  0.00  0.00  0.00  0.00  0.00  0.00  0.00  0.00
  CDT-29                  1.00   1.00  0.00  0.00  0.00  0.00  0.00  0.00  0.00  0.00
  CDT-31                  1.00   0.00  1.00  0.00  0.00  0.00  0.00  0.00  0.00  0.00
  CDT-35                  1.00   1.00  0.00  0.00  0.00  0.00  0.00  0.00  0.00  0.00
  CDT-37                  1.00   1.00  0.00  0.00  0.00  0.00  0.00  0.00  0.00  0.00
  CDT-39                  1.00   1.00  0.00  0.00  0.00  0.00  0.00  0.00  0.00  0.00
  CDT-41                  1.07   1.00  0.00  0.00  0.00  0.00  0.00  0.00  0.00  0.00
  CDT-43                  1.00   1.00  0.00  0.00  0.00  0.00  0.00  0.00  0.00  0.00
  CDT-45                  1.00   1.00  0.00  0.00  0.00  0.00  0.00  0.00  0.00  0.00
  CDT-47                  1.00   1.00  0.00  0.00  0.00  0.00  0.00  0.00  0.00  0.00
  CDT-51                  1.00   1.00  0.00  0.00  0.00  0.00  0.00  0.00  0.00  0.00
  CDT-53                  1.00   1.00  0.00  0.00  0.00  0.00  0.00  0.00  0.00  0.00
  CDT-57                  1.00   1.00  0.00  0.00  0.00  0.00  0.00  0.00  0.00  0.00
  CDT-59                  1.00   1.00  0.00  0.00  0.00  0.00  0.00  0.00  0.00  0.00
  CDT-61                  1.00   1.00  0.00  0.00  0.00  0.00  0.00  0.00  0.00  0.00
  CDT-63                  1.00   1.00  0.00  0.00  0.00  0.00  0.00  0.00  0.00  0.00
  CDT-69                  1.00   1.00  0.00  0.00  0.00  0.00  0.00  0.00  0.00  0.00
  CDT-71                  1.00   1.00  0.00  0.00  0.00  0.00  0.00  0.00  0.00  0.00
  CDT-73                  1.00   1.00  0.00  0.00  0.00  0.00  0.00  0.00  0.00  0.00
  CDT-75                  1.00   1.00  0.00  0.00  0.00  0.00  0.00  0.00  0.00  0.00
  CDT-77                  1.00   1.00  0.00  0.00  0.00  0.00  0.00  0.00  0.00  0.00
  CDT-81                  1.00   1.00  0.00  0.00  0.00  0.00  0.00  0.00  0.00  0.00
  CDT-83                  1.00   0.00  1.00  0.00  0.00  0.00  0.00  0.00  0.00  0.00
  CDT-85                  1.00   1.00  0.00  0.00  0.00  0.00  0.00  0.00  0.00  0.00
  CDT-87                  1.00   1.00  0.00  0.00  0.00  0.00  0.00  0.00  0.00  0.00
  CDT-89                  1.00   1.00  0.00  0.00  0.00  0.00  0.00  0.00  0.00  0.00
  CDT-9041                1.00   0.00  0.00  0.00  0.00  1.00  0.00  0.00  0.00  0.00
  CDT-9042                1.00   0.00  0.00  0.00  0.00  1.00  0.00  0.00  0.00  0.00
  CDT-9043                1.00   0.00  0.00  0.00  0.00  1.00  0.00  0.00  0.98  0.00
  CDT-9044                1.00   0.00  0.00  0.00  0.00  1.00  0.00  0.00  0.95  0.00
  CDT-9045                1.00   0.00  0.00  0.00  0.00  1.00  0.00  0.00  0.99  0.00
  CDT-9047                1.00   0.00  0.00  0.00  0.00  1.00  0.00  0.00  0.00  0.00
  CDT-91                  1.00   1.00  0.00  0.00  0.00  0.00  0.00  0.00  0.00  0.00
  CDT-93                  1.00   1.00  0.00  0.00  0.00  0.00  0.00  0.00  0.00  0.00
  CDT-95                  1.00   1.00  0.00  0.00  0.00  0.00  0.00  0.00  0.00  0.00
  CDT-97                  1.00   1.00  0.00  0.00  0.00  0.00  0.00  0.00  0.00  0.00
  CDT-99                  1.00   1.00  0.00  0.00  0.00  0.00  0.00  0.00  0.00  0.00
  
  
  *************************
  Conduit Surcharge Summary
  *************************
  
  ----------------------------------------------------------------------------
                                                           Hours        Hours 
                         --------- Hours Full --------   Above Full   Capacity
  Conduit                Both Ends  Upstream  Dnstream   Normal Flow   Limited
  ----------------------------------------------------------------------------
  1176                        0.01      0.01      0.01     32.27         0.01
  1323                        0.01      0.01     13.71      0.01         0.01
  1338                        0.01      0.01     14.59      0.01         0.01
  1340                       14.59     14.59     17.07      0.01         0.01
  1398                        0.01     46.64      0.01     37.87         0.01
  1400                       33.77     33.77     46.64      0.01         0.01
  1402                        0.01      0.01     33.77      0.01         0.01
  1589                        3.76      7.88      3.76     33.96         3.76
  1594                        0.01      0.01      2.49      0.01         0.01
  1599                        0.01      0.01      3.84      0.01         0.01
  1600                        2.49      2.49      4.48      0.01         0.01
  1602                        4.48      4.48      6.74      0.01         0.01
  1604                        6.74      6.74      8.68      0.01         0.01
  1606                        8.68      8.68     10.52      0.01         0.01
  1608                       17.67     33.99     17.67     34.09        17.67
  1611                        0.01     17.67      0.01     11.84         0.01
  1613                        0.01      0.01     29.17      0.01         0.01
  1614                       10.52     10.52     11.76      0.01         0.01
  1616                       11.76     11.76     12.51      0.01         0.01
  1618                       12.51     12.51     14.40      0.01         0.01
  1620                       14.40     14.40     16.05      0.01         0.01
  1622                       16.05     16.05     17.31      0.01         0.01
  1624                       17.31     17.31     26.44      0.01         0.01
  1626                       26.44     26.44     33.70      0.01         0.01
  1628                       33.70     33.70     34.08      0.01         0.01
  1630                       34.08     34.08     34.21     16.33        16.32
  222                         0.01      0.01      0.01     12.45         0.01
  224                         0.01      0.01      0.01     12.33         0.01
  226                         0.01      0.01      3.78      0.01         0.01
  228                         0.01      3.78      0.01      7.45         0.01
  230                         0.01      0.01     16.25      0.01         0.01
  232                         0.01     16.25      0.01     24.93         0.01
  433                         0.01      0.01     27.32      0.01         0.01
  435                        26.76     27.32     28.71     32.07        26.76
  437                        12.30     28.71     12.30     34.87        12.30
  439                        10.37     10.37     11.92      8.19         8.21
  441                        11.92     11.92     15.30      0.01         0.01
  443                        15.15     15.30     15.15     17.43        15.15
  445                        15.15     15.15     17.43      0.01         0.01
  447                        17.43     17.43     22.05     14.70        14.70
  449                         7.88      8.43      7.88     34.15         7.80
  451                         0.01      3.76      0.01     33.97         0.01
  454                         0.01      0.01      0.01     33.98         0.01
  456                         0.01      0.01      0.01     33.90         0.01
  458                         0.01      0.01      0.01     34.31         0.01
  481                        34.12     34.31     34.19     34.34        33.97
  484                        34.19     34.19     34.57     32.76        32.56
  486                        34.24     34.24     34.54      0.01         0.01
  488                        34.54     34.54     35.58      0.01         0.01
  490                        35.58     35.58     36.05      0.01         0.01
  492                        36.05     36.05     38.00      0.01         0.01
  494                        36.10     40.59     36.10     46.32        36.10
  879                         0.01      0.01      3.78      0.01         0.01
  927                         0.01      0.01      0.01     46.39         0.01
  CDT-19                      0.01      0.01     46.06      0.01         0.01
  

  Analysis begun on:  Fri Nov 29 13:19:59 2019
  Analysis ended on:  Fri Nov 29 13:20:25 2019
  Total elapsed time: 00:00:26