
  EPA STORM WATER MANAGEMENT MODEL - VERSION 5.1 (Build 5.1.013)
  --------------------------------------------------------------

  WARNING 04: minimum elevation drop used for Conduit l240
  WARNING 04: minimum elevation drop used for Conduit l241
  WARNING 04: minimum elevation drop used for Conduit yg67
  WARNING 04: minimum elevation drop used for Conduit yg115
  WARNING 04: minimum elevation drop used for Conduit yg117
  WARNING 04: minimum elevation drop used for Conduit yg185
  WARNING 04: minimum elevation drop used for Conduit yg202
  WARNING 04: minimum elevation drop used for Conduit yg131
  WARNING 04: minimum elevation drop used for Conduit yg195
  WARNING 04: minimum elevation drop used for Conduit yg197
  WARNING 04: minimum elevation drop used for Conduit yg215
  WARNING 02: maximum depth increased for Node yj220
  
  *********************************************************
  NOTE: The summary statistics displayed in this report are
  based on results found at every computational time step,  
  not just on results from each reporting time step.
  *********************************************************
  
  ****************
  Analysis Options
  ****************
  Flow Units ............... CMS
  Process Models:
    Rainfall/Runoff ........ YES
    RDII ................... NO
    Snowmelt ............... NO
    Groundwater ............ NO
    Flow Routing ........... YES
    Ponding Allowed ........ NO
    Water Quality .......... NO
  Infiltration Method ...... HORTON
  Flow Routing Method ...... DYNWAVE
  Surcharge Method ......... EXTRAN
  Starting Date ............ 06/08/2014 00:00:00
  Ending Date .............. 06/08/2014 09:00:00
  Antecedent Dry Days ...... 0.0
  Report Time Step ......... 00:01:00
  Wet Time Step ............ 00:01:00
  Dry Time Step ............ 01:00:00
  Routing Time Step ........ 30.00 sec
  Variable Time Step ....... YES
  Maximum Trials ........... 8
  Number of Threads ........ 1
  Head Tolerance ........... 0.001524 m
  
  
  **************************        Volume         Depth
  Runoff Quantity Continuity     hectare-m            mm
  **************************     ---------       -------
  Total Precipitation ......         0.000         0.000
  Evaporation Loss .........         0.000         0.000
  Infiltration Loss ........         0.000         0.000
  Surface Runoff ...........         0.000         0.000
  Final Storage ............         0.000         0.000
  Continuity Error (%) .....         0.000
  
  
  **************************        Volume        Volume
  Flow Routing Continuity        hectare-m      10^6 ltr
  **************************     ---------     ---------
  Dry Weather Inflow .......         0.000         0.000
  Wet Weather Inflow .......         0.000         0.000
  Groundwater Inflow .......         0.000         0.000
  RDII Inflow ..............         0.000         0.000
  External Inflow ..........         0.000         0.000
  External Outflow .........         0.000         0.000
  Flooding Loss ............         0.000         0.000
  Evaporation Loss .........         0.000         0.000
  Exfiltration Loss ........         0.000         0.000
  Initial Stored Volume ....         0.108         1.080
  Final Stored Volume ......         0.108         1.080
  Continuity Error (%) .....         0.000
  
  
  ***************************
  Time-Step Critical Elements
  ***************************
  None
  
  
  ********************************
  Highest Flow Instability Indexes
  ********************************
  All links are stable.
  
  
  ***************************
  Subcatchment Runoff Summary
  ***************************
  
  ------------------------------------------------------------------------------------------------------------------------------
                            Total      Total      Total      Total     Imperv       Perv      Total       Total     Peak  Runoff
                           Precip      Runon       Evap      Infil     Runoff     Runoff     Runoff      Runoff   Runoff   Coeff
  Subcatchment                 mm         mm         mm         mm         mm         mm         mm    10^6 ltr      CMS
  ------------------------------------------------------------------------------------------------------------------------------
  m1                         0.00       0.00       0.00       0.00       0.00       0.00       0.00        0.00     0.00   0.000
  m2                         0.00       0.00       0.00       0.00       0.00       0.00       0.00        0.00     0.00   0.000
  m3                         0.00       0.00       0.00       0.00       0.00       0.00       0.00        0.00     0.00   0.000
  m4                         0.00       0.00       0.00       0.00       0.00       0.00       0.00        0.00     0.00   0.000
  m5                         0.00       0.00       0.00       0.00       0.00       0.00       0.00        0.00     0.00   0.000
  m6                         0.00       0.00       0.00       0.00       0.00       0.00       0.00        0.00     0.00   0.000
  m7                         0.00       0.00       0.00       0.00       0.00       0.00       0.00        0.00     0.00   0.000
  m8                         0.00       0.00       0.00       0.00       0.00       0.00       0.00        0.00     0.00   0.000
  m9                         0.00       0.00       0.00       0.00       0.00       0.00       0.00        0.00     0.00   0.000
  m10                        0.00       0.00       0.00       0.00       0.00       0.00       0.00        0.00     0.00   0.000
  m11                        0.00       0.00       0.00       0.00       0.00       0.00       0.00        0.00     0.00   0.000
  m12                        0.00       0.00       0.00       0.00       0.00       0.00       0.00        0.00     0.00   0.000
  m13                        0.00       0.00       0.00       0.00       0.00       0.00       0.00        0.00     0.00   0.000
  m14                        0.00       0.00       0.00       0.00       0.00       0.00       0.00        0.00     0.00   0.000
  m15                        0.00       0.00       0.00       0.00       0.00       0.00       0.00        0.00     0.00   0.000
  m16                        0.00       0.00       0.00       0.00       0.00       0.00       0.00        0.00     0.00   0.000
  m17                        0.00       0.00       0.00       0.00       0.00       0.00       0.00        0.00     0.00   0.000
  m18                        0.00       0.00       0.00       0.00       0.00       0.00       0.00        0.00     0.00   0.000
  m19                        0.00       0.00       0.00       0.00       0.00       0.00       0.00        0.00     0.00   0.000
  m20                        0.00       0.00       0.00       0.00       0.00       0.00       0.00        0.00     0.00   0.000
  m21                        0.00       0.00       0.00       0.00       0.00       0.00       0.00        0.00     0.00   0.000
  m22                        0.00       0.00       0.00       0.00       0.00       0.00       0.00        0.00     0.00   0.000
  m23                        0.00       0.00       0.00       0.00       0.00       0.00       0.00        0.00     0.00   0.000
  m24                        0.00       0.00       0.00       0.00       0.00       0.00       0.00        0.00     0.00   0.000
  m25                        0.00       0.00       0.00       0.00       0.00       0.00       0.00        0.00     0.00   0.000
  m26                        0.00       0.00       0.00       0.00       0.00       0.00       0.00        0.00     0.00   0.000
  m27                        0.00       0.00       0.00       0.00       0.00       0.00       0.00        0.00     0.00   0.000
  m28                        0.00       0.00       0.00       0.00       0.00       0.00       0.00        0.00     0.00   0.000
  m29                        0.00       0.00       0.00       0.00       0.00       0.00       0.00        0.00     0.00   0.000
  m30                        0.00       0.00       0.00       0.00       0.00       0.00       0.00        0.00     0.00   0.000
  m31                        0.00       0.00       0.00       0.00       0.00       0.00       0.00        0.00     0.00   0.000
  m32                        0.00       0.00       0.00       0.00       0.00       0.00       0.00        0.00     0.00   0.000
  m33                        0.00       0.00       0.00       0.00       0.00       0.00       0.00        0.00     0.00   0.000
  m34                        0.00       0.00       0.00       0.00       0.00       0.00       0.00        0.00     0.00   0.000
  m35                        0.00       0.00       0.00       0.00       0.00       0.00       0.00        0.00     0.00   0.000
  m36                        0.00       0.00       0.00       0.00       0.00       0.00       0.00        0.00     0.00   0.000
  m37                        0.00       0.00       0.00       0.00       0.00       0.00       0.00        0.00     0.00   0.000
  m38                        0.00       0.00       0.00       0.00       0.00       0.00       0.00        0.00     0.00   0.000
  m39                        0.00       0.00       0.00       0.00       0.00       0.00       0.00        0.00     0.00   0.000
  m40                        0.00       0.00       0.00       0.00       0.00       0.00       0.00        0.00     0.00   0.000
  m41                        0.00       0.00       0.00       0.00       0.00       0.00       0.00        0.00     0.00   0.000
  m42                        0.00       0.00       0.00       0.00       0.00       0.00       0.00        0.00     0.00   0.000
  m43                        0.00       0.00       0.00       0.00       0.00       0.00       0.00        0.00     0.00   0.000
  m44                        0.00       0.00       0.00       0.00       0.00       0.00       0.00        0.00     0.00   0.000
  m45                        0.00       0.00       0.00       0.00       0.00       0.00       0.00        0.00     0.00   0.000
  m46                        0.00       0.00       0.00       0.00       0.00       0.00       0.00        0.00     0.00   0.000
  m47                        0.00       0.00       0.00       0.00       0.00       0.00       0.00        0.00     0.00   0.000
  m48                        0.00       0.00       0.00       0.00       0.00       0.00       0.00        0.00     0.00   0.000
  m49                        0.00       0.00       0.00       0.00       0.00       0.00       0.00        0.00     0.00   0.000
  m50                        0.00       0.00       0.00       0.00       0.00       0.00       0.00        0.00     0.00   0.000
  m51                        0.00       0.00       0.00       0.00       0.00       0.00       0.00        0.00     0.00   0.000
  m52                        0.00       0.00       0.00       0.00       0.00       0.00       0.00        0.00     0.00   0.000
  m53                        0.00       0.00       0.00       0.00       0.00       0.00       0.00        0.00     0.00   0.000
  m54                        0.00       0.00       0.00       0.00       0.00       0.00       0.00        0.00     0.00   0.000
  m55                        0.00       0.00       0.00       0.00       0.00       0.00       0.00        0.00     0.00   0.000
  m56                        0.00       0.00       0.00       0.00       0.00       0.00       0.00        0.00     0.00   0.000
  m57                        0.00       0.00       0.00       0.00       0.00       0.00       0.00        0.00     0.00   0.000
  m58                        0.00       0.00       0.00       0.00       0.00       0.00       0.00        0.00     0.00   0.000
  m59                        0.00       0.00       0.00       0.00       0.00       0.00       0.00        0.00     0.00   0.000
  m60                        0.00       0.00       0.00       0.00       0.00       0.00       0.00        0.00     0.00   0.000
  m61                        0.00       0.00       0.00       0.00       0.00       0.00       0.00        0.00     0.00   0.000
  m62                        0.00       0.00       0.00       0.00       0.00       0.00       0.00        0.00     0.00   0.000
  m63                        0.00       0.00       0.00       0.00       0.00       0.00       0.00        0.00     0.00   0.000
  m64                        0.00       0.00       0.00       0.00       0.00       0.00       0.00        0.00     0.00   0.000
  m65                        0.00       0.00       0.00       0.00       0.00       0.00       0.00        0.00     0.00   0.000
  m66                        0.00       0.00       0.00       0.00       0.00       0.00       0.00        0.00     0.00   0.000
  m67                        0.00       0.00       0.00       0.00       0.00       0.00       0.00        0.00     0.00   0.000
  m68                        0.00       0.00       0.00       0.00       0.00       0.00       0.00        0.00     0.00   0.000
  m69                        0.00       0.00       0.00       0.00       0.00       0.00       0.00        0.00     0.00   0.000
  m70                        0.00       0.00       0.00       0.00       0.00       0.00       0.00        0.00     0.00   0.000
  m71                        0.00       0.00       0.00       0.00       0.00       0.00       0.00        0.00     0.00   0.000
  m72                        0.00       0.00       0.00       0.00       0.00       0.00       0.00        0.00     0.00   0.000
  m73                        0.00       0.00       0.00       0.00       0.00       0.00       0.00        0.00     0.00   0.000
  m74                        0.00       0.00       0.00       0.00       0.00       0.00       0.00        0.00     0.00   0.000
  m75                        0.00       0.00       0.00       0.00       0.00       0.00       0.00        0.00     0.00   0.000
  m76                        0.00       0.00       0.00       0.00       0.00       0.00       0.00        0.00     0.00   0.000
  m77                        0.00       0.00       0.00       0.00       0.00       0.00       0.00        0.00     0.00   0.000
  m78                        0.00       0.00       0.00       0.00       0.00       0.00       0.00        0.00     0.00   0.000
  m79                        0.00       0.00       0.00       0.00       0.00       0.00       0.00        0.00     0.00   0.000
  m80                        0.00       0.00       0.00       0.00       0.00       0.00       0.00        0.00     0.00   0.000
  m81                        0.00       0.00       0.00       0.00       0.00       0.00       0.00        0.00     0.00   0.000
  m82                        0.00       0.00       0.00       0.00       0.00       0.00       0.00        0.00     0.00   0.000
  m83                        0.00       0.00       0.00       0.00       0.00       0.00       0.00        0.00     0.00   0.000
  m84                        0.00       0.00       0.00       0.00       0.00       0.00       0.00        0.00     0.00   0.000
  m85                        0.00       0.00       0.00       0.00       0.00       0.00       0.00        0.00     0.00   0.000
  m86                        0.00       0.00       0.00       0.00       0.00       0.00       0.00        0.00     0.00   0.000
  m87                        0.00       0.00       0.00       0.00       0.00       0.00       0.00        0.00     0.00   0.000
  m88                        0.00       0.00       0.00       0.00       0.00       0.00       0.00        0.00     0.00   0.000
  m89                        0.00       0.00       0.00       0.00       0.00       0.00       0.00        0.00     0.00   0.000
  m90                        0.00       0.00       0.00       0.00       0.00       0.00       0.00        0.00     0.00   0.000
  m91                        0.00       0.00       0.00       0.00       0.00       0.00       0.00        0.00     0.00   0.000
  m92                        0.00       0.00       0.00       0.00       0.00       0.00       0.00        0.00     0.00   0.000
  m93                        0.00       0.00       0.00       0.00       0.00       0.00       0.00        0.00     0.00   0.000
  m94                        0.00       0.00       0.00       0.00       0.00       0.00       0.00        0.00     0.00   0.000
  m95                        0.00       0.00       0.00       0.00       0.00       0.00       0.00        0.00     0.00   0.000
  m96                        0.00       0.00       0.00       0.00       0.00       0.00       0.00        0.00     0.00   0.000
  m97                        0.00       0.00       0.00       0.00       0.00       0.00       0.00        0.00     0.00   0.000
  m98                        0.00       0.00       0.00       0.00       0.00       0.00       0.00        0.00     0.00   0.000
  m99                        0.00       0.00       0.00       0.00       0.00       0.00       0.00        0.00     0.00   0.000
  m100                       0.00       0.00       0.00       0.00       0.00       0.00       0.00        0.00     0.00   0.000
  m101                       0.00       0.00       0.00       0.00       0.00       0.00       0.00        0.00     0.00   0.000
  m102                       0.00       0.00       0.00       0.00       0.00       0.00       0.00        0.00     0.00   0.000
  m103                       0.00       0.00       0.00       0.00       0.00       0.00       0.00        0.00     0.00   0.000
  m104                       0.00       0.00       0.00       0.00       0.00       0.00       0.00        0.00     0.00   0.000
  m105                       0.00       0.00       0.00       0.00       0.00       0.00       0.00        0.00     0.00   0.000
  m106                       0.00       0.00       0.00       0.00       0.00       0.00       0.00        0.00     0.00   0.000
  m107                       0.00       0.00       0.00       0.00       0.00       0.00       0.00        0.00     0.00   0.000
  m108                       0.00       0.00       0.00       0.00       0.00       0.00       0.00        0.00     0.00   0.000
  m109                       0.00       0.00       0.00       0.00       0.00       0.00       0.00        0.00     0.00   0.000
  m110                       0.00       0.00       0.00       0.00       0.00       0.00       0.00        0.00     0.00   0.000
  m111                       0.00       0.00       0.00       0.00       0.00       0.00       0.00        0.00     0.00   0.000
  m112                       0.00       0.00       0.00       0.00       0.00       0.00       0.00        0.00     0.00   0.000
  m113                       0.00       0.00       0.00       0.00       0.00       0.00       0.00        0.00     0.00   0.000
  m114                       0.00       0.00       0.00       0.00       0.00       0.00       0.00        0.00     0.00   0.000
  m115                       0.00       0.00       0.00       0.00       0.00       0.00       0.00        0.00     0.00   0.000
  m116                       0.00       0.00       0.00       0.00       0.00       0.00       0.00        0.00     0.00   0.000
  m117                       0.00       0.00       0.00       0.00       0.00       0.00       0.00        0.00     0.00   0.000
  m118                       0.00       0.00       0.00       0.00       0.00       0.00       0.00        0.00     0.00   0.000
  m119                       0.00       0.00       0.00       0.00       0.00       0.00       0.00        0.00     0.00   0.000
  m120                       0.00       0.00       0.00       0.00       0.00       0.00       0.00        0.00     0.00   0.000
  m121                       0.00       0.00       0.00       0.00       0.00       0.00       0.00        0.00     0.00   0.000
  m122                       0.00       0.00       0.00       0.00       0.00       0.00       0.00        0.00     0.00   0.000
  m123                       0.00       0.00       0.00       0.00       0.00       0.00       0.00        0.00     0.00   0.000
  m124                       0.00       0.00       0.00       0.00       0.00       0.00       0.00        0.00     0.00   0.000
  m125                       0.00       0.00       0.00       0.00       0.00       0.00       0.00        0.00     0.00   0.000
  m126                       0.00       0.00       0.00       0.00       0.00       0.00       0.00        0.00     0.00   0.000
  m127                       0.00       0.00       0.00       0.00       0.00       0.00       0.00        0.00     0.00   0.000
  m128                       0.00       0.00       0.00       0.00       0.00       0.00       0.00        0.00     0.00   0.000
  m129                       0.00       0.00       0.00       0.00       0.00       0.00       0.00        0.00     0.00   0.000
  m130                       0.00       0.00       0.00       0.00       0.00       0.00       0.00        0.00     0.00   0.000
  m131                       0.00       0.00       0.00       0.00       0.00       0.00       0.00        0.00     0.00   0.000
  m132                       0.00       0.00       0.00       0.00       0.00       0.00       0.00        0.00     0.00   0.000
  m133                       0.00       0.00       0.00       0.00       0.00       0.00       0.00        0.00     0.00   0.000
  m134                       0.00       0.00       0.00       0.00       0.00       0.00       0.00        0.00     0.00   0.000
  m135                       0.00       0.00       0.00       0.00       0.00       0.00       0.00        0.00     0.00   0.000
  m136                       0.00       0.00       0.00       0.00       0.00       0.00       0.00        0.00     0.00   0.000
  m137                       0.00       0.00       0.00       0.00       0.00       0.00       0.00        0.00     0.00   0.000
  m138                       0.00       0.00       0.00       0.00       0.00       0.00       0.00        0.00     0.00   0.000
  m139                       0.00       0.00       0.00       0.00       0.00       0.00       0.00        0.00     0.00   0.000
  m140                       0.00       0.00       0.00       0.00       0.00       0.00       0.00        0.00     0.00   0.000
  m141                       0.00       0.00       0.00       0.00       0.00       0.00       0.00        0.00     0.00   0.000
  m142                       0.00       0.00       0.00       0.00       0.00       0.00       0.00        0.00     0.00   0.000
  m143                       0.00       0.00       0.00       0.00       0.00       0.00       0.00        0.00     0.00   0.000
  m144                       0.00       0.00       0.00       0.00       0.00       0.00       0.00        0.00     0.00   0.000
  m145                       0.00       0.00       0.00       0.00       0.00       0.00       0.00        0.00     0.00   0.000
  m146                       0.00       0.00       0.00       0.00       0.00       0.00       0.00        0.00     0.00   0.000
  m147                       0.00       0.00       0.00       0.00       0.00       0.00       0.00        0.00     0.00   0.000
  m148                       0.00       0.00       0.00       0.00       0.00       0.00       0.00        0.00     0.00   0.000
  m149                       0.00       0.00       0.00       0.00       0.00       0.00       0.00        0.00     0.00   0.000
  m150                       0.00       0.00       0.00       0.00       0.00       0.00       0.00        0.00     0.00   0.000
  m151                       0.00       0.00       0.00       0.00       0.00       0.00       0.00        0.00     0.00   0.000
  m152                       0.00       0.00       0.00       0.00       0.00       0.00       0.00        0.00     0.00   0.000
  m153                       0.00       0.00       0.00       0.00       0.00       0.00       0.00        0.00     0.00   0.000
  m154                       0.00       0.00       0.00       0.00       0.00       0.00       0.00        0.00     0.00   0.000
  m155                       0.00       0.00       0.00       0.00       0.00       0.00       0.00        0.00     0.00   0.000
  m156                       0.00       0.00       0.00       0.00       0.00       0.00       0.00        0.00     0.00   0.000
  m157                       0.00       0.00       0.00       0.00       0.00       0.00       0.00        0.00     0.00   0.000
  m158                       0.00       0.00       0.00       0.00       0.00       0.00       0.00        0.00     0.00   0.000
  m159                       0.00       0.00       0.00       0.00       0.00       0.00       0.00        0.00     0.00   0.000
  m160                       0.00       0.00       0.00       0.00       0.00       0.00       0.00        0.00     0.00   0.000
  m161                       0.00       0.00       0.00       0.00       0.00       0.00       0.00        0.00     0.00   0.000
  m162                       0.00       0.00       0.00       0.00       0.00       0.00       0.00        0.00     0.00   0.000
  m163                       0.00       0.00       0.00       0.00       0.00       0.00       0.00        0.00     0.00   0.000
  m164                       0.00       0.00       0.00       0.00       0.00       0.00       0.00        0.00     0.00   0.000
  m165                       0.00       0.00       0.00       0.00       0.00       0.00       0.00        0.00     0.00   0.000
  m166                       0.00       0.00       0.00       0.00       0.00       0.00       0.00        0.00     0.00   0.000
  m167                       0.00       0.00       0.00       0.00       0.00       0.00       0.00        0.00     0.00   0.000
  m168                       0.00       0.00       0.00       0.00       0.00       0.00       0.00        0.00     0.00   0.000
  m169                       0.00       0.00       0.00       0.00       0.00       0.00       0.00        0.00     0.00   0.000
  m170                       0.00       0.00       0.00       0.00       0.00       0.00       0.00        0.00     0.00   0.000
  m171                       0.00       0.00       0.00       0.00       0.00       0.00       0.00        0.00     0.00   0.000
  m172                       0.00       0.00       0.00       0.00       0.00       0.00       0.00        0.00     0.00   0.000
  m173                       0.00       0.00       0.00       0.00       0.00       0.00       0.00        0.00     0.00   0.000
  m174                       0.00       0.00       0.00       0.00       0.00       0.00       0.00        0.00     0.00   0.000
  m175                       0.00       0.00       0.00       0.00       0.00       0.00       0.00        0.00     0.00   0.000
  m176                       0.00       0.00       0.00       0.00       0.00       0.00       0.00        0.00     0.00   0.000
  m177                       0.00       0.00       0.00       0.00       0.00       0.00       0.00        0.00     0.00   0.000
  m178                       0.00       0.00       0.00       0.00       0.00       0.00       0.00        0.00     0.00   0.000
  m179                       0.00       0.00       0.00       0.00       0.00       0.00       0.00        0.00     0.00   0.000
  m180                       0.00       0.00       0.00       0.00       0.00       0.00       0.00        0.00     0.00   0.000
  m181                       0.00       0.00       0.00       0.00       0.00       0.00       0.00        0.00     0.00   0.000
  m182                       0.00       0.00       0.00       0.00       0.00       0.00       0.00        0.00     0.00   0.000
  m183                       0.00       0.00       0.00       0.00       0.00       0.00       0.00        0.00     0.00   0.000
  m184                       0.00       0.00       0.00       0.00       0.00       0.00       0.00        0.00     0.00   0.000
  m185                       0.00       0.00       0.00       0.00       0.00       0.00       0.00        0.00     0.00   0.000
  m186                       0.00       0.00       0.00       0.00       0.00       0.00       0.00        0.00     0.00   0.000
  m187                       0.00       0.00       0.00       0.00       0.00       0.00       0.00        0.00     0.00   0.000
  m188                       0.00       0.00       0.00       0.00       0.00       0.00       0.00        0.00     0.00   0.000
  m189                       0.00       0.00       0.00       0.00       0.00       0.00       0.00        0.00     0.00   0.000
  m190                       0.00       0.00       0.00       0.00       0.00       0.00       0.00        0.00     0.00   0.000
  m191                       0.00       0.00       0.00       0.00       0.00       0.00       0.00        0.00     0.00   0.000
  m192                       0.00       0.00       0.00       0.00       0.00       0.00       0.00        0.00     0.00   0.000
  m193                       0.00       0.00       0.00       0.00       0.00       0.00       0.00        0.00     0.00   0.000
  m194                       0.00       0.00       0.00       0.00       0.00       0.00       0.00        0.00     0.00   0.000
  m195                       0.00       0.00       0.00       0.00       0.00       0.00       0.00        0.00     0.00   0.000
  m196                       0.00       0.00       0.00       0.00       0.00       0.00       0.00        0.00     0.00   0.000
  m197                       0.00       0.00       0.00       0.00       0.00       0.00       0.00        0.00     0.00   0.000
  m198                       0.00       0.00       0.00       0.00       0.00       0.00       0.00        0.00     0.00   0.000
  m199                       0.00       0.00       0.00       0.00       0.00       0.00       0.00        0.00     0.00   0.000
  m200                       0.00       0.00       0.00       0.00       0.00       0.00       0.00        0.00     0.00   0.000
  m201                       0.00       0.00       0.00       0.00       0.00       0.00       0.00        0.00     0.00   0.000
  m202                       0.00       0.00       0.00       0.00       0.00       0.00       0.00        0.00     0.00   0.000
  m203                       0.00       0.00       0.00       0.00       0.00       0.00       0.00        0.00     0.00   0.000
  m204                       0.00       0.00       0.00       0.00       0.00       0.00       0.00        0.00     0.00   0.000
  m205                       0.00       0.00       0.00       0.00       0.00       0.00       0.00        0.00     0.00   0.000
  m206                       0.00       0.00       0.00       0.00       0.00       0.00       0.00        0.00     0.00   0.000
  m207                       0.00       0.00       0.00       0.00       0.00       0.00       0.00        0.00     0.00   0.000
  m208                       0.00       0.00       0.00       0.00       0.00       0.00       0.00        0.00     0.00   0.000
  m209                       0.00       0.00       0.00       0.00       0.00       0.00       0.00        0.00     0.00   0.000
  m210                       0.00       0.00       0.00       0.00       0.00       0.00       0.00        0.00     0.00   0.000
  m211                       0.00       0.00       0.00       0.00       0.00       0.00       0.00        0.00     0.00   0.000
  m218                       0.00       0.00       0.00       0.00       0.00       0.00       0.00        0.00     0.00   0.000
  m219                       0.00       0.00       0.00       0.00       0.00       0.00       0.00        0.00     0.00   0.000
  m220                       0.00       0.00       0.00       0.00       0.00       0.00       0.00        0.00     0.00   0.000
  m221                       0.00       0.00       0.00       0.00       0.00       0.00       0.00        0.00     0.00   0.000
  m222                       0.00       0.00       0.00       0.00       0.00       0.00       0.00        0.00     0.00   0.000
  m223                       0.00       0.00       0.00       0.00       0.00       0.00       0.00        0.00     0.00   0.000
  m224                       0.00       0.00       0.00       0.00       0.00       0.00       0.00        0.00     0.00   0.000
  m225                       0.00       0.00       0.00       0.00       0.00       0.00       0.00        0.00     0.00   0.000
  m226                       0.00       0.00       0.00       0.00       0.00       0.00       0.00        0.00     0.00   0.000
  m227                       0.00       0.00       0.00       0.00       0.00       0.00       0.00        0.00     0.00   0.000
  m228                       0.00       0.00       0.00       0.00       0.00       0.00       0.00        0.00     0.00   0.000
  m229                       0.00       0.00       0.00       0.00       0.00       0.00       0.00        0.00     0.00   0.000
  m230                       0.00       0.00       0.00       0.00       0.00       0.00       0.00        0.00     0.00   0.000
  m231                       0.00       0.00       0.00       0.00       0.00       0.00       0.00        0.00     0.00   0.000
  m232                       0.00       0.00       0.00       0.00       0.00       0.00       0.00        0.00     0.00   0.000
  m233                       0.00       0.00       0.00       0.00       0.00       0.00       0.00        0.00     0.00   0.000
  m234                       0.00       0.00       0.00       0.00       0.00       0.00       0.00        0.00     0.00   0.000
  m235                       0.00       0.00       0.00       0.00       0.00       0.00       0.00        0.00     0.00   0.000
  m236                       0.00       0.00       0.00       0.00       0.00       0.00       0.00        0.00     0.00   0.000
  m237                       0.00       0.00       0.00       0.00       0.00       0.00       0.00        0.00     0.00   0.000
  m238                       0.00       0.00       0.00       0.00       0.00       0.00       0.00        0.00     0.00   0.000
  m239                       0.00       0.00       0.00       0.00       0.00       0.00       0.00        0.00     0.00   0.000
  m240                       0.00       0.00       0.00       0.00       0.00       0.00       0.00        0.00     0.00   0.000
  m241                       0.00       0.00       0.00       0.00       0.00       0.00       0.00        0.00     0.00   0.000
  m242                       0.00       0.00       0.00       0.00       0.00       0.00       0.00        0.00     0.00   0.000
  m243                       0.00       0.00       0.00       0.00       0.00       0.00       0.00        0.00     0.00   0.000
  m244                       0.00       0.00       0.00       0.00       0.00       0.00       0.00        0.00     0.00   0.000
  m245                       0.00       0.00       0.00       0.00       0.00       0.00       0.00        0.00     0.00   0.000
  m246                       0.00       0.00       0.00       0.00       0.00       0.00       0.00        0.00     0.00   0.000
  m247                       0.00       0.00       0.00       0.00       0.00       0.00       0.00        0.00     0.00   0.000
  m248                       0.00       0.00       0.00       0.00       0.00       0.00       0.00        0.00     0.00   0.000
  m249                       0.00       0.00       0.00       0.00       0.00       0.00       0.00        0.00     0.00   0.000
  m250                       0.00       0.00       0.00       0.00       0.00       0.00       0.00        0.00     0.00   0.000
  m251                       0.00       0.00       0.00       0.00       0.00       0.00       0.00        0.00     0.00   0.000
  m252                       0.00       0.00       0.00       0.00       0.00       0.00       0.00        0.00     0.00   0.000
  m253                       0.00       0.00       0.00       0.00       0.00       0.00       0.00        0.00     0.00   0.000
  m254                       0.00       0.00       0.00       0.00       0.00       0.00       0.00        0.00     0.00   0.000
  m255                       0.00       0.00       0.00       0.00       0.00       0.00       0.00        0.00     0.00   0.000
  m256                       0.00       0.00       0.00       0.00       0.00       0.00       0.00        0.00     0.00   0.000
  m257                       0.00       0.00       0.00       0.00       0.00       0.00       0.00        0.00     0.00   0.000
  m258                       0.00       0.00       0.00       0.00       0.00       0.00       0.00        0.00     0.00   0.000
  m259                       0.00       0.00       0.00       0.00       0.00       0.00       0.00        0.00     0.00   0.000
  m260                       0.00       0.00       0.00       0.00       0.00       0.00       0.00        0.00     0.00   0.000
  m261                       0.00       0.00       0.00       0.00       0.00       0.00       0.00        0.00     0.00   0.000
  m262                       0.00       0.00       0.00       0.00       0.00       0.00       0.00        0.00     0.00   0.000
  m263                       0.00       0.00       0.00       0.00       0.00       0.00       0.00        0.00     0.00   0.000
  m264                       0.00       0.00       0.00       0.00       0.00       0.00       0.00        0.00     0.00   0.000
  m265                       0.00       0.00       0.00       0.00       0.00       0.00       0.00        0.00     0.00   0.000
  m266                       0.00       0.00       0.00       0.00       0.00       0.00       0.00        0.00     0.00   0.000
  m267                       0.00       0.00       0.00       0.00       0.00       0.00       0.00        0.00     0.00   0.000
  m268                       0.00       0.00       0.00       0.00       0.00       0.00       0.00        0.00     0.00   0.000
  m269                       0.00       0.00       0.00       0.00       0.00       0.00       0.00        0.00     0.00   0.000
  m271                       0.00       0.00       0.00       0.00       0.00       0.00       0.00        0.00     0.00   0.000
  m275                       0.00       0.00       0.00       0.00       0.00       0.00       0.00        0.00     0.00   0.000
  m277                       0.00       0.00       0.00       0.00       0.00       0.00       0.00        0.00     0.00   0.000
  m278                       0.00       0.00       0.00       0.00       0.00       0.00       0.00        0.00     0.00   0.000
  m279                       0.00       0.00       0.00       0.00       0.00       0.00       0.00        0.00     0.00   0.000
  m280                       0.00       0.00       0.00       0.00       0.00       0.00       0.00        0.00     0.00   0.000
  m281                       0.00       0.00       0.00       0.00       0.00       0.00       0.00        0.00     0.00   0.000
  m282                       0.00       0.00       0.00       0.00       0.00       0.00       0.00        0.00     0.00   0.000
  m283                       0.00       0.00       0.00       0.00       0.00       0.00       0.00        0.00     0.00   0.000
  m284                       0.00       0.00       0.00       0.00       0.00       0.00       0.00        0.00     0.00   0.000
  m285                       0.00       0.00       0.00       0.00       0.00       0.00       0.00        0.00     0.00   0.000
  m286                       0.00       0.00       0.00       0.00       0.00       0.00       0.00        0.00     0.00   0.000
  m287                       0.00       0.00       0.00       0.00       0.00       0.00       0.00        0.00     0.00   0.000
  m288                       0.00       0.00       0.00       0.00       0.00       0.00       0.00        0.00     0.00   0.000
  m289                       0.00       0.00       0.00       0.00       0.00       0.00       0.00        0.00     0.00   0.000
  m290                       0.00       0.00       0.00       0.00       0.00       0.00       0.00        0.00     0.00   0.000
  m291                       0.00       0.00       0.00       0.00       0.00       0.00       0.00        0.00     0.00   0.000
  m292                       0.00       0.00       0.00       0.00       0.00       0.00       0.00        0.00     0.00   0.000
  m293                       0.00       0.00       0.00       0.00       0.00       0.00       0.00        0.00     0.00   0.000
  m294                       0.00       0.00       0.00       0.00       0.00       0.00       0.00        0.00     0.00   0.000
  m295                       0.00       0.00       0.00       0.00       0.00       0.00       0.00        0.00     0.00   0.000
  m296                       0.00       0.00       0.00       0.00       0.00       0.00       0.00        0.00     0.00   0.000
  m297                       0.00       0.00       0.00       0.00       0.00       0.00       0.00        0.00     0.00   0.000
  m298                       0.00       0.00       0.00       0.00       0.00       0.00       0.00        0.00     0.00   0.000
  m299                       0.00       0.00       0.00       0.00       0.00       0.00       0.00        0.00     0.00   0.000
  m300                       0.00       0.00       0.00       0.00       0.00       0.00       0.00        0.00     0.00   0.000
  m301                       0.00       0.00       0.00       0.00       0.00       0.00       0.00        0.00     0.00   0.000
  m302                       0.00       0.00       0.00       0.00       0.00       0.00       0.00        0.00     0.00   0.000
  m303                       0.00       0.00       0.00       0.00       0.00       0.00       0.00        0.00     0.00   0.000
  m304                       0.00       0.00       0.00       0.00       0.00       0.00       0.00        0.00     0.00   0.000
  m305                       0.00       0.00       0.00       0.00       0.00       0.00       0.00        0.00     0.00   0.000
  m306                       0.00       0.00       0.00       0.00       0.00       0.00       0.00        0.00     0.00   0.000
  m307                       0.00       0.00       0.00       0.00       0.00       0.00       0.00        0.00     0.00   0.000
  m308                       0.00       0.00       0.00       0.00       0.00       0.00       0.00        0.00     0.00   0.000
  m309                       0.00       0.00       0.00       0.00       0.00       0.00       0.00        0.00     0.00   0.000
  m310                       0.00       0.00       0.00       0.00       0.00       0.00       0.00        0.00     0.00   0.000
  m311                       0.00       0.00       0.00       0.00       0.00       0.00       0.00        0.00     0.00   0.000
  m312                       0.00       0.00       0.00       0.00       0.00       0.00       0.00        0.00     0.00   0.000
  m313                       0.00       0.00       0.00       0.00       0.00       0.00       0.00        0.00     0.00   0.000
  m314                       0.00       0.00       0.00       0.00       0.00       0.00       0.00        0.00     0.00   0.000
  m315                       0.00       0.00       0.00       0.00       0.00       0.00       0.00        0.00     0.00   0.000
  m316                       0.00       0.00       0.00       0.00       0.00       0.00       0.00        0.00     0.00   0.000
  m317                       0.00       0.00       0.00       0.00       0.00       0.00       0.00        0.00     0.00   0.000
  m318                       0.00       0.00       0.00       0.00       0.00       0.00       0.00        0.00     0.00   0.000
  m319                       0.00       0.00       0.00       0.00       0.00       0.00       0.00        0.00     0.00   0.000
  m320                       0.00       0.00       0.00       0.00       0.00       0.00       0.00        0.00     0.00   0.000
  m321                       0.00       0.00       0.00       0.00       0.00       0.00       0.00        0.00     0.00   0.000
  m322                       0.00       0.00       0.00       0.00       0.00       0.00       0.00        0.00     0.00   0.000
  m323                       0.00       0.00       0.00       0.00       0.00       0.00       0.00        0.00     0.00   0.000
  m324                       0.00       0.00       0.00       0.00       0.00       0.00       0.00        0.00     0.00   0.000
  m325                       0.00       0.00       0.00       0.00       0.00       0.00       0.00        0.00     0.00   0.000
  m326                       0.00       0.00       0.00       0.00       0.00       0.00       0.00        0.00     0.00   0.000
  m327                       0.00       0.00       0.00       0.00       0.00       0.00       0.00        0.00     0.00   0.000
  m328                       0.00       0.00       0.00       0.00       0.00       0.00       0.00        0.00     0.00   0.000
  m329                       0.00       0.00       0.00       0.00       0.00       0.00       0.00        0.00     0.00   0.000
  m330                       0.00       0.00       0.00       0.00       0.00       0.00       0.00        0.00     0.00   0.000
  m331                       0.00       0.00       0.00       0.00       0.00       0.00       0.00        0.00     0.00   0.000
  m332                       0.00       0.00       0.00       0.00       0.00       0.00       0.00        0.00     0.00   0.000
  m333                       0.00       0.00       0.00       0.00       0.00       0.00       0.00        0.00     0.00   0.000
  m334                       0.00       0.00       0.00       0.00       0.00       0.00       0.00        0.00     0.00   0.000
  m335                       0.00       0.00       0.00       0.00       0.00       0.00       0.00        0.00     0.00   0.000
  m336                       0.00       0.00       0.00       0.00       0.00       0.00       0.00        0.00     0.00   0.000
  m337                       0.00       0.00       0.00       0.00       0.00       0.00       0.00        0.00     0.00   0.000
  m338                       0.00       0.00       0.00       0.00       0.00       0.00       0.00        0.00     0.00   0.000
  m339                       0.00       0.00       0.00       0.00       0.00       0.00       0.00        0.00     0.00   0.000
  m340                       0.00       0.00       0.00       0.00       0.00       0.00       0.00        0.00     0.00   0.000
  m341                       0.00       0.00       0.00       0.00       0.00       0.00       0.00        0.00     0.00   0.000
  m342                       0.00       0.00       0.00       0.00       0.00       0.00       0.00        0.00     0.00   0.000
  m343                       0.00       0.00       0.00       0.00       0.00       0.00       0.00        0.00     0.00   0.000
  m344                       0.00       0.00       0.00       0.00       0.00       0.00       0.00        0.00     0.00   0.000
  m345                       0.00       0.00       0.00       0.00       0.00       0.00       0.00        0.00     0.00   0.000
  m346                       0.00       0.00       0.00       0.00       0.00       0.00       0.00        0.00     0.00   0.000
  m347                       0.00       0.00       0.00       0.00       0.00       0.00       0.00        0.00     0.00   0.000
  m348                       0.00       0.00       0.00       0.00       0.00       0.00       0.00        0.00     0.00   0.000
  m349                       0.00       0.00       0.00       0.00       0.00       0.00       0.00        0.00     0.00   0.000
  m350                       0.00       0.00       0.00       0.00       0.00       0.00       0.00        0.00     0.00   0.000
  m351                       0.00       0.00       0.00       0.00       0.00       0.00       0.00        0.00     0.00   0.000
  m352                       0.00       0.00       0.00       0.00       0.00       0.00       0.00        0.00     0.00   0.000
  m353                       0.00       0.00       0.00       0.00       0.00       0.00       0.00        0.00     0.00   0.000
  m354                       0.00       0.00       0.00       0.00       0.00       0.00       0.00        0.00     0.00   0.000
  m355                       0.00       0.00       0.00       0.00       0.00       0.00       0.00        0.00     0.00   0.000
  m356                       0.00       0.00       0.00       0.00       0.00       0.00       0.00        0.00     0.00   0.000
  m357                       0.00       0.00       0.00       0.00       0.00       0.00       0.00        0.00     0.00   0.000
  m358                       0.00       0.00       0.00       0.00       0.00       0.00       0.00        0.00     0.00   0.000
  m359                       0.00       0.00       0.00       0.00       0.00       0.00       0.00        0.00     0.00   0.000
  m360                       0.00       0.00       0.00       0.00       0.00       0.00       0.00        0.00     0.00   0.000
  m361                       0.00       0.00       0.00       0.00       0.00       0.00       0.00        0.00     0.00   0.000
  m362                       0.00       0.00       0.00       0.00       0.00       0.00       0.00        0.00     0.00   0.000
  m363                       0.00       0.00       0.00       0.00       0.00       0.00       0.00        0.00     0.00   0.000
  m364                       0.00       0.00       0.00       0.00       0.00       0.00       0.00        0.00     0.00   0.000
  m365                       0.00       0.00       0.00       0.00       0.00       0.00       0.00        0.00     0.00   0.000
  m366                       0.00       0.00       0.00       0.00       0.00       0.00       0.00        0.00     0.00   0.000
  m367                       0.00       0.00       0.00       0.00       0.00       0.00       0.00        0.00     0.00   0.000
  m368                       0.00       0.00       0.00       0.00       0.00       0.00       0.00        0.00     0.00   0.000
  m369                       0.00       0.00       0.00       0.00       0.00       0.00       0.00        0.00     0.00   0.000
  m370                       0.00       0.00       0.00       0.00       0.00       0.00       0.00        0.00     0.00   0.000
  m371                       0.00       0.00       0.00       0.00       0.00       0.00       0.00        0.00     0.00   0.000
  m372                       0.00       0.00       0.00       0.00       0.00       0.00       0.00        0.00     0.00   0.000
  m373                       0.00       0.00       0.00       0.00       0.00       0.00       0.00        0.00     0.00   0.000
  m374                       0.00       0.00       0.00       0.00       0.00       0.00       0.00        0.00     0.00   0.000
  m375                       0.00       0.00       0.00       0.00       0.00       0.00       0.00        0.00     0.00   0.000
  m376                       0.00       0.00       0.00       0.00       0.00       0.00       0.00        0.00     0.00   0.000
  m377                       0.00       0.00       0.00       0.00       0.00       0.00       0.00        0.00     0.00   0.000
  m378                       0.00       0.00       0.00       0.00       0.00       0.00       0.00        0.00     0.00   0.000
  m379                       0.00       0.00       0.00       0.00       0.00       0.00       0.00        0.00     0.00   0.000
  m380                       0.00       0.00       0.00       0.00       0.00       0.00       0.00        0.00     0.00   0.000
  m381                       0.00       0.00       0.00       0.00       0.00       0.00       0.00        0.00     0.00   0.000
  m382                       0.00       0.00       0.00       0.00       0.00       0.00       0.00        0.00     0.00   0.000
  m383                       0.00       0.00       0.00       0.00       0.00       0.00       0.00        0.00     0.00   0.000
  m384                       0.00       0.00       0.00       0.00       0.00       0.00       0.00        0.00     0.00   0.000
  m385                       0.00       0.00       0.00       0.00       0.00       0.00       0.00        0.00     0.00   0.000
  m386                       0.00       0.00       0.00       0.00       0.00       0.00       0.00        0.00     0.00   0.000
  m387                       0.00       0.00       0.00       0.00       0.00       0.00       0.00        0.00     0.00   0.000
  m388                       0.00       0.00       0.00       0.00       0.00       0.00       0.00        0.00     0.00   0.000
  m389                       0.00       0.00       0.00       0.00       0.00       0.00       0.00        0.00     0.00   0.000
  m390                       0.00       0.00       0.00       0.00       0.00       0.00       0.00        0.00     0.00   0.000
  m391                       0.00       0.00       0.00       0.00       0.00       0.00       0.00        0.00     0.00   0.000
  m392                       0.00       0.00       0.00       0.00       0.00       0.00       0.00        0.00     0.00   0.000
  m393                       0.00       0.00       0.00       0.00       0.00       0.00       0.00        0.00     0.00   0.000
  m394                       0.00       0.00       0.00       0.00       0.00       0.00       0.00        0.00     0.00   0.000
  m395                       0.00       0.00       0.00       0.00       0.00       0.00       0.00        0.00     0.00   0.000
  m396                       0.00       0.00       0.00       0.00       0.00       0.00       0.00        0.00     0.00   0.000
  m397                       0.00       0.00       0.00       0.00       0.00       0.00       0.00        0.00     0.00   0.000
  m398                       0.00       0.00       0.00       0.00       0.00       0.00       0.00        0.00     0.00   0.000
  m399                       0.00       0.00       0.00       0.00       0.00       0.00       0.00        0.00     0.00   0.000
  m400                       0.00       0.00       0.00       0.00       0.00       0.00       0.00        0.00     0.00   0.000
  m401                       0.00       0.00       0.00       0.00       0.00       0.00       0.00        0.00     0.00   0.000
  m402                       0.00       0.00       0.00       0.00       0.00       0.00       0.00        0.00     0.00   0.000
  m403                       0.00       0.00       0.00       0.00       0.00       0.00       0.00        0.00     0.00   0.000
  m404                       0.00       0.00       0.00       0.00       0.00       0.00       0.00        0.00     0.00   0.000
  m405                       0.00       0.00       0.00       0.00       0.00       0.00       0.00        0.00     0.00   0.000
  m406                       0.00       0.00       0.00       0.00       0.00       0.00       0.00        0.00     0.00   0.000
  m407                       0.00       0.00       0.00       0.00       0.00       0.00       0.00        0.00     0.00   0.000
  m408                       0.00       0.00       0.00       0.00       0.00       0.00       0.00        0.00     0.00   0.000
  m409                       0.00       0.00       0.00       0.00       0.00       0.00       0.00        0.00     0.00   0.000
  m410                       0.00       0.00       0.00       0.00       0.00       0.00       0.00        0.00     0.00   0.000
  m411                       0.00       0.00       0.00       0.00       0.00       0.00       0.00        0.00     0.00   0.000
  m412                       0.00       0.00       0.00       0.00       0.00       0.00       0.00        0.00     0.00   0.000
  m413                       0.00       0.00       0.00       0.00       0.00       0.00       0.00        0.00     0.00   0.000
  m414                       0.00       0.00       0.00       0.00       0.00       0.00       0.00        0.00     0.00   0.000
  m415                       0.00       0.00       0.00       0.00       0.00       0.00       0.00        0.00     0.00   0.000
  m416                       0.00       0.00       0.00       0.00       0.00       0.00       0.00        0.00     0.00   0.000
  m417                       0.00       0.00       0.00       0.00       0.00       0.00       0.00        0.00     0.00   0.000
  m418                       0.00       0.00       0.00       0.00       0.00       0.00       0.00        0.00     0.00   0.000
  m419                       0.00       0.00       0.00       0.00       0.00       0.00       0.00        0.00     0.00   0.000
  m420                       0.00       0.00       0.00       0.00       0.00       0.00       0.00        0.00     0.00   0.000
  m421                       0.00       0.00       0.00       0.00       0.00       0.00       0.00        0.00     0.00   0.000
  m422                       0.00       0.00       0.00       0.00       0.00       0.00       0.00        0.00     0.00   0.000
  m423                       0.00       0.00       0.00       0.00       0.00       0.00       0.00        0.00     0.00   0.000
  m424                       0.00       0.00       0.00       0.00       0.00       0.00       0.00        0.00     0.00   0.000
  m425                       0.00       0.00       0.00       0.00       0.00       0.00       0.00        0.00     0.00   0.000
  m426                       0.00       0.00       0.00       0.00       0.00       0.00       0.00        0.00     0.00   0.000
  m427                       0.00       0.00       0.00       0.00       0.00       0.00       0.00        0.00     0.00   0.000
  m428                       0.00       0.00       0.00       0.00       0.00       0.00       0.00        0.00     0.00   0.000
  m429                       0.00       0.00       0.00       0.00       0.00       0.00       0.00        0.00     0.00   0.000
  m430                       0.00       0.00       0.00       0.00       0.00       0.00       0.00        0.00     0.00   0.000
  m431                       0.00       0.00       0.00       0.00       0.00       0.00       0.00        0.00     0.00   0.000
  m432                       0.00       0.00       0.00       0.00       0.00       0.00       0.00        0.00     0.00   0.000
  m433                       0.00       0.00       0.00       0.00       0.00       0.00       0.00        0.00     0.00   0.000
  m434                       0.00       0.00       0.00       0.00       0.00       0.00       0.00        0.00     0.00   0.000
  m435                       0.00       0.00       0.00       0.00       0.00       0.00       0.00        0.00     0.00   0.000
  m436                       0.00       0.00       0.00       0.00       0.00       0.00       0.00        0.00     0.00   0.000
  m437                       0.00       0.00       0.00       0.00       0.00       0.00       0.00        0.00     0.00   0.000
  m438                       0.00       0.00       0.00       0.00       0.00       0.00       0.00        0.00     0.00   0.000
  m439                       0.00       0.00       0.00       0.00       0.00       0.00       0.00        0.00     0.00   0.000
  m440                       0.00       0.00       0.00       0.00       0.00       0.00       0.00        0.00     0.00   0.000
  m441                       0.00       0.00       0.00       0.00       0.00       0.00       0.00        0.00     0.00   0.000
  m442                       0.00       0.00       0.00       0.00       0.00       0.00       0.00        0.00     0.00   0.000
  m443                       0.00       0.00       0.00       0.00       0.00       0.00       0.00        0.00     0.00   0.000
  m444                       0.00       0.00       0.00       0.00       0.00       0.00       0.00        0.00     0.00   0.000
  m445                       0.00       0.00       0.00       0.00       0.00       0.00       0.00        0.00     0.00   0.000
  m446                       0.00       0.00       0.00       0.00       0.00       0.00       0.00        0.00     0.00   0.000
  m447                       0.00       0.00       0.00       0.00       0.00       0.00       0.00        0.00     0.00   0.000
  m448                       0.00       0.00       0.00       0.00       0.00       0.00       0.00        0.00     0.00   0.000
  m449                       0.00       0.00       0.00       0.00       0.00       0.00       0.00        0.00     0.00   0.000
  m450                       0.00       0.00       0.00       0.00       0.00       0.00       0.00        0.00     0.00   0.000
  m451                       0.00       0.00       0.00       0.00       0.00       0.00       0.00        0.00     0.00   0.000
  m452                       0.00       0.00       0.00       0.00       0.00       0.00       0.00        0.00     0.00   0.000
  m453                       0.00       0.00       0.00       0.00       0.00       0.00       0.00        0.00     0.00   0.000
  m454                       0.00       0.00       0.00       0.00       0.00       0.00       0.00        0.00     0.00   0.000
  m455                       0.00       0.00       0.00       0.00       0.00       0.00       0.00        0.00     0.00   0.000
  m456                       0.00       0.00       0.00       0.00       0.00       0.00       0.00        0.00     0.00   0.000
  m457                       0.00       0.00       0.00       0.00       0.00       0.00       0.00        0.00     0.00   0.000
  m458                       0.00       0.00       0.00       0.00       0.00       0.00       0.00        0.00     0.00   0.000
  m459                       0.00       0.00       0.00       0.00       0.00       0.00       0.00        0.00     0.00   0.000
  m460                       0.00       0.00       0.00       0.00       0.00       0.00       0.00        0.00     0.00   0.000
  m461                       0.00       0.00       0.00       0.00       0.00       0.00       0.00        0.00     0.00   0.000
  yh1                        0.00       0.00       0.00       0.00       0.00       0.00       0.00        0.00     0.00   0.000
  yh2                        0.00       0.00       0.00       0.00       0.00       0.00       0.00        0.00     0.00   0.000
  yh3                        0.00       0.00       0.00       0.00       0.00       0.00       0.00        0.00     0.00   0.000
  yh4                        0.00       0.00       0.00       0.00       0.00       0.00       0.00        0.00     0.00   0.000
  yh5                        0.00       0.00       0.00       0.00       0.00       0.00       0.00        0.00     0.00   0.000
  yh6                        0.00       0.00       0.00       0.00       0.00       0.00       0.00        0.00     0.00   0.000
  yh7                        0.00       0.00       0.00       0.00       0.00       0.00       0.00        0.00     0.00   0.000
  yh8                        0.00       0.00       0.00       0.00       0.00       0.00       0.00        0.00     0.00   0.000
  yh9                        0.00       0.00       0.00       0.00       0.00       0.00       0.00        0.00     0.00   0.000
  yh10                       0.00       0.00       0.00       0.00       0.00       0.00       0.00        0.00     0.00   0.000
  yh11                       0.00       0.00       0.00       0.00       0.00       0.00       0.00        0.00     0.00   0.000
  yh12                       0.00       0.00       0.00       0.00       0.00       0.00       0.00        0.00     0.00   0.000
  yh13                       0.00       0.00       0.00       0.00       0.00       0.00       0.00        0.00     0.00   0.000
  yh14                       0.00       0.00       0.00       0.00       0.00       0.00       0.00        0.00     0.00   0.000
  yh15                       0.00       0.00       0.00       0.00       0.00       0.00       0.00        0.00     0.00   0.000
  yh16                       0.00       0.00       0.00       0.00       0.00       0.00       0.00        0.00     0.00   0.000
  yh17                       0.00       0.00       0.00       0.00       0.00       0.00       0.00        0.00     0.00   0.000
  yh18                       0.00       0.00       0.00       0.00       0.00       0.00       0.00        0.00     0.00   0.000
  yh19                       0.00       0.00       0.00       0.00       0.00       0.00       0.00        0.00     0.00   0.000
  yh20                       0.00       0.00       0.00       0.00       0.00       0.00       0.00        0.00     0.00   0.000
  yh21                       0.00       0.00       0.00       0.00       0.00       0.00       0.00        0.00     0.00   0.000
  yh22                       0.00       0.00       0.00       0.00       0.00       0.00       0.00        0.00     0.00   0.000
  yh23                       0.00       0.00       0.00       0.00       0.00       0.00       0.00        0.00     0.00   0.000
  yh24                       0.00       0.00       0.00       0.00       0.00       0.00       0.00        0.00     0.00   0.000
  yh25                       0.00       0.00       0.00       0.00       0.00       0.00       0.00        0.00     0.00   0.000
  yh26                       0.00       0.00       0.00       0.00       0.00       0.00       0.00        0.00     0.00   0.000
  yh27                       0.00       0.00       0.00       0.00       0.00       0.00       0.00        0.00     0.00   0.000
  yh28                       0.00       0.00       0.00       0.00       0.00       0.00       0.00        0.00     0.00   0.000
  yh29                       0.00       0.00       0.00       0.00       0.00       0.00       0.00        0.00     0.00   0.000
  yh30                       0.00       0.00       0.00       0.00       0.00       0.00       0.00        0.00     0.00   0.000
  yh31                       0.00       0.00       0.00       0.00       0.00       0.00       0.00        0.00     0.00   0.000
  yh32                       0.00       0.00       0.00       0.00       0.00       0.00       0.00        0.00     0.00   0.000
  yh33                       0.00       0.00       0.00       0.00       0.00       0.00       0.00        0.00     0.00   0.000
  yh34                       0.00       0.00       0.00       0.00       0.00       0.00       0.00        0.00     0.00   0.000
  yh35                       0.00       0.00       0.00       0.00       0.00       0.00       0.00        0.00     0.00   0.000
  yh36                       0.00       0.00       0.00       0.00       0.00       0.00       0.00        0.00     0.00   0.000
  yh37                       0.00       0.00       0.00       0.00       0.00       0.00       0.00        0.00     0.00   0.000
  yh38                       0.00       0.00       0.00       0.00       0.00       0.00       0.00        0.00     0.00   0.000
  yh39                       0.00       0.00       0.00       0.00       0.00       0.00       0.00        0.00     0.00   0.000
  yh40                       0.00       0.00       0.00       0.00       0.00       0.00       0.00        0.00     0.00   0.000
  yh41                       0.00       0.00       0.00       0.00       0.00       0.00       0.00        0.00     0.00   0.000
  yh42                       0.00       0.00       0.00       0.00       0.00       0.00       0.00        0.00     0.00   0.000
  yh43                       0.00       0.00       0.00       0.00       0.00       0.00       0.00        0.00     0.00   0.000
  yh44                       0.00       0.00       0.00       0.00       0.00       0.00       0.00        0.00     0.00   0.000
  yh45                       0.00       0.00       0.00       0.00       0.00       0.00       0.00        0.00     0.00   0.000
  yh46                       0.00       0.00       0.00       0.00       0.00       0.00       0.00        0.00     0.00   0.000
  yh47                       0.00       0.00       0.00       0.00       0.00       0.00       0.00        0.00     0.00   0.000
  yh48                       0.00       0.00       0.00       0.00       0.00       0.00       0.00        0.00     0.00   0.000
  yh49                       0.00       0.00       0.00       0.00       0.00       0.00       0.00        0.00     0.00   0.000
  yh50                       0.00       0.00       0.00       0.00       0.00       0.00       0.00        0.00     0.00   0.000
  yh51                       0.00       0.00       0.00       0.00       0.00       0.00       0.00        0.00     0.00   0.000
  yh52                       0.00       0.00       0.00       0.00       0.00       0.00       0.00        0.00     0.00   0.000
  yh53                       0.00       0.00       0.00       0.00       0.00       0.00       0.00        0.00     0.00   0.000
  yh54                       0.00       0.00       0.00       0.00       0.00       0.00       0.00        0.00     0.00   0.000
  yh55                       0.00       0.00       0.00       0.00       0.00       0.00       0.00        0.00     0.00   0.000
  yh56                       0.00       0.00       0.00       0.00       0.00       0.00       0.00        0.00     0.00   0.000
  yh57                       0.00       0.00       0.00       0.00       0.00       0.00       0.00        0.00     0.00   0.000
  yh58                       0.00       0.00       0.00       0.00       0.00       0.00       0.00        0.00     0.00   0.000
  yh59                       0.00       0.00       0.00       0.00       0.00       0.00       0.00        0.00     0.00   0.000
  yh60                       0.00       0.00       0.00       0.00       0.00       0.00       0.00        0.00     0.00   0.000
  yh61                       0.00       0.00       0.00       0.00       0.00       0.00       0.00        0.00     0.00   0.000
  yh62                       0.00       0.00       0.00       0.00       0.00       0.00       0.00        0.00     0.00   0.000
  yh63                       0.00       0.00       0.00       0.00       0.00       0.00       0.00        0.00     0.00   0.000
  yh64                       0.00       0.00       0.00       0.00       0.00       0.00       0.00        0.00     0.00   0.000
  yh65                       0.00       0.00       0.00       0.00       0.00       0.00       0.00        0.00     0.00   0.000
  yh66                       0.00       0.00       0.00       0.00       0.00       0.00       0.00        0.00     0.00   0.000
  yh67                       0.00       0.00       0.00       0.00       0.00       0.00       0.00        0.00     0.00   0.000
  yh68                       0.00       0.00       0.00       0.00       0.00       0.00       0.00        0.00     0.00   0.000
  yh69                       0.00       0.00       0.00       0.00       0.00       0.00       0.00        0.00     0.00   0.000
  yh70                       0.00       0.00       0.00       0.00       0.00       0.00       0.00        0.00     0.00   0.000
  yh71                       0.00       0.00       0.00       0.00       0.00       0.00       0.00        0.00     0.00   0.000
  yh72                       0.00       0.00       0.00       0.00       0.00       0.00       0.00        0.00     0.00   0.000
  yh73                       0.00       0.00       0.00       0.00       0.00       0.00       0.00        0.00     0.00   0.000
  yh74                       0.00       0.00       0.00       0.00       0.00       0.00       0.00        0.00     0.00   0.000
  yh75                       0.00       0.00       0.00       0.00       0.00       0.00       0.00        0.00     0.00   0.000
  yh76                       0.00       0.00       0.00       0.00       0.00       0.00       0.00        0.00     0.00   0.000
  yh77                       0.00       0.00       0.00       0.00       0.00       0.00       0.00        0.00     0.00   0.000
  yh78                       0.00       0.00       0.00       0.00       0.00       0.00       0.00        0.00     0.00   0.000
  yh79                       0.00       0.00       0.00       0.00       0.00       0.00       0.00        0.00     0.00   0.000
  yh80                       0.00       0.00       0.00       0.00       0.00       0.00       0.00        0.00     0.00   0.000
  yh81                       0.00       0.00       0.00       0.00       0.00       0.00       0.00        0.00     0.00   0.000
  yh82                       0.00       0.00       0.00       0.00       0.00       0.00       0.00        0.00     0.00   0.000
  yh83                       0.00       0.00       0.00       0.00       0.00       0.00       0.00        0.00     0.00   0.000
  yh84                       0.00       0.00       0.00       0.00       0.00       0.00       0.00        0.00     0.00   0.000
  yh85                       0.00       0.00       0.00       0.00       0.00       0.00       0.00        0.00     0.00   0.000
  yh86                       0.00       0.00       0.00       0.00       0.00       0.00       0.00        0.00     0.00   0.000
  yh87                       0.00       0.00       0.00       0.00       0.00       0.00       0.00        0.00     0.00   0.000
  yh88                       0.00       0.00       0.00       0.00       0.00       0.00       0.00        0.00     0.00   0.000
  yh89                       0.00       0.00       0.00       0.00       0.00       0.00       0.00        0.00     0.00   0.000
  yh90                       0.00       0.00       0.00       0.00       0.00       0.00       0.00        0.00     0.00   0.000
  yh91                       0.00       0.00       0.00       0.00       0.00       0.00       0.00        0.00     0.00   0.000
  yh92                       0.00       0.00       0.00       0.00       0.00       0.00       0.00        0.00     0.00   0.000
  yh93                       0.00       0.00       0.00       0.00       0.00       0.00       0.00        0.00     0.00   0.000
  yh94                       0.00       0.00       0.00       0.00       0.00       0.00       0.00        0.00     0.00   0.000
  yh95                       0.00       0.00       0.00       0.00       0.00       0.00       0.00        0.00     0.00   0.000
  yh96                       0.00       0.00       0.00       0.00       0.00       0.00       0.00        0.00     0.00   0.000
  yh97                       0.00       0.00       0.00       0.00       0.00       0.00       0.00        0.00     0.00   0.000
  yh98                       0.00       0.00       0.00       0.00       0.00       0.00       0.00        0.00     0.00   0.000
  yh99                       0.00       0.00       0.00       0.00       0.00       0.00       0.00        0.00     0.00   0.000
  yh100                      0.00       0.00       0.00       0.00       0.00       0.00       0.00        0.00     0.00   0.000
  yh101                      0.00       0.00       0.00       0.00       0.00       0.00       0.00        0.00     0.00   0.000
  yh102                      0.00       0.00       0.00       0.00       0.00       0.00       0.00        0.00     0.00   0.000
  yh103                      0.00       0.00       0.00       0.00       0.00       0.00       0.00        0.00     0.00   0.000
  yh104                      0.00       0.00       0.00       0.00       0.00       0.00       0.00        0.00     0.00   0.000
  yh105                      0.00       0.00       0.00       0.00       0.00       0.00       0.00        0.00     0.00   0.000
  yh106                      0.00       0.00       0.00       0.00       0.00       0.00       0.00        0.00     0.00   0.000
  yh107                      0.00       0.00       0.00       0.00       0.00       0.00       0.00        0.00     0.00   0.000
  yh108                      0.00       0.00       0.00       0.00       0.00       0.00       0.00        0.00     0.00   0.000
  yh109                      0.00       0.00       0.00       0.00       0.00       0.00       0.00        0.00     0.00   0.000
  yh110                      0.00       0.00       0.00       0.00       0.00       0.00       0.00        0.00     0.00   0.000
  yh111                      0.00       0.00       0.00       0.00       0.00       0.00       0.00        0.00     0.00   0.000
  yh112                      0.00       0.00       0.00       0.00       0.00       0.00       0.00        0.00     0.00   0.000
  yh113                      0.00       0.00       0.00       0.00       0.00       0.00       0.00        0.00     0.00   0.000
  yh114                      0.00       0.00       0.00       0.00       0.00       0.00       0.00        0.00     0.00   0.000
  yh115                      0.00       0.00       0.00       0.00       0.00       0.00       0.00        0.00     0.00   0.000
  yh116                      0.00       0.00       0.00       0.00       0.00       0.00       0.00        0.00     0.00   0.000
  yh117                      0.00       0.00       0.00       0.00       0.00       0.00       0.00        0.00     0.00   0.000
  yh118                      0.00       0.00       0.00       0.00       0.00       0.00       0.00        0.00     0.00   0.000
  yh119                      0.00       0.00       0.00       0.00       0.00       0.00       0.00        0.00     0.00   0.000
  yh120                      0.00       0.00       0.00       0.00       0.00       0.00       0.00        0.00     0.00   0.000
  yh121                      0.00       0.00       0.00       0.00       0.00       0.00       0.00        0.00     0.00   0.000
  yh122                      0.00       0.00       0.00       0.00       0.00       0.00       0.00        0.00     0.00   0.000
  yh123                      0.00       0.00       0.00       0.00       0.00       0.00       0.00        0.00     0.00   0.000
  yh124                      0.00       0.00       0.00       0.00       0.00       0.00       0.00        0.00     0.00   0.000
  yh125                      0.00       0.00       0.00       0.00       0.00       0.00       0.00        0.00     0.00   0.000
  yh126                      0.00       0.00       0.00       0.00       0.00       0.00       0.00        0.00     0.00   0.000
  yh127                      0.00       0.00       0.00       0.00       0.00       0.00       0.00        0.00     0.00   0.000
  yh128                      0.00       0.00       0.00       0.00       0.00       0.00       0.00        0.00     0.00   0.000
  yh129                      0.00       0.00       0.00       0.00       0.00       0.00       0.00        0.00     0.00   0.000
  yh130                      0.00       0.00       0.00       0.00       0.00       0.00       0.00        0.00     0.00   0.000
  yh131                      0.00       0.00       0.00       0.00       0.00       0.00       0.00        0.00     0.00   0.000
  yh132                      0.00       0.00       0.00       0.00       0.00       0.00       0.00        0.00     0.00   0.000
  yh133                      0.00       0.00       0.00       0.00       0.00       0.00       0.00        0.00     0.00   0.000
  yh134                      0.00       0.00       0.00       0.00       0.00       0.00       0.00        0.00     0.00   0.000
  yh135                      0.00       0.00       0.00       0.00       0.00       0.00       0.00        0.00     0.00   0.000
  yh136                      0.00       0.00       0.00       0.00       0.00       0.00       0.00        0.00     0.00   0.000
[...]
  yg121                   1.00   -nan(ind)  -nan(ind)  -nan(ind)  -nan(ind)  -nan(ind)  -nan(ind)  -nan(ind)  -nan(ind)  -nan(ind)
  yg122                   1.00   -nan(ind)  -nan(ind)  -nan(ind)  -nan(ind)  -nan(ind)  -nan(ind)  -nan(ind)  -nan(ind)  -nan(ind)
  yg123                   1.00   -nan(ind)  -nan(ind)  -nan(ind)  -nan(ind)  -nan(ind)  -nan(ind)  -nan(ind)  -nan(ind)  -nan(ind)
  yg124                   1.00   -nan(ind)  -nan(ind)  -nan(ind)  -nan(ind)  -nan(ind)  -nan(ind)  -nan(ind)  -nan(ind)  -nan(ind)
  yg125                   1.00   -nan(ind)  -nan(ind)  -nan(ind)  -nan(ind)  -nan(ind)  -nan(ind)  -nan(ind)  -nan(ind)  -nan(ind)
  yg126                   1.00   -nan(ind)  -nan(ind)  -nan(ind)  -nan(ind)  -nan(ind)  -nan(ind)  -nan(ind)  -nan(ind)  -nan(ind)
  yg127                   1.00   -nan(ind)  -nan(ind)  -nan(ind)  -nan(ind)  -nan(ind)  -nan(ind)  -nan(ind)  -nan(ind)  -nan(ind)
  yg128                   1.00   -nan(ind)  -nan(ind)  -nan(ind)  -nan(ind)  -nan(ind)  -nan(ind)  -nan(ind)  -nan(ind)  -nan(ind)
  yg129                   1.00   -nan(ind)  -nan(ind)  -nan(ind)  -nan(ind)  -nan(ind)  -nan(ind)  -nan(ind)  -nan(ind)  -nan(ind)
  yg130                   1.00   -nan(ind)  -nan(ind)  -nan(ind)  -nan(ind)  -nan(ind)  -nan(ind)  -nan(ind)  -nan(ind)  -nan(ind)
  yg132                   1.00   -nan(ind)  -nan(ind)  -nan(ind)  -nan(ind)  -nan(ind)  -nan(ind)  -nan(ind)  -nan(ind)  -nan(ind)
  yg133                   1.00   -nan(ind)  -nan(ind)  -nan(ind)  -nan(ind)  -nan(ind)  -nan(ind)  -nan(ind)  -nan(ind)  -nan(ind)
  yg134                   1.00   -nan(ind)  -nan(ind)  -nan(ind)  -nan(ind)  -nan(ind)  -nan(ind)  -nan(ind)  -nan(ind)  -nan(ind)
  yg135                   1.00   -nan(ind)  -nan(ind)  -nan(ind)  -nan(ind)  -nan(ind)  -nan(ind)  -nan(ind)  -nan(ind)  -nan(ind)
  yg136                   1.00   -nan(ind)  -nan(ind)  -nan(ind)  -nan(ind)  -nan(ind)  -nan(ind)  -nan(ind)  -nan(ind)  -nan(ind)
  yg137                   1.00   -nan(ind)  -nan(ind)  -nan(ind)  -nan(ind)  -nan(ind)  -nan(ind)  -nan(ind)  -nan(ind)  -nan(ind)
  yg138                   1.00   -nan(ind)  -nan(ind)  -nan(ind)  -nan(ind)  -nan(ind)  -nan(ind)  -nan(ind)  -nan(ind)  -nan(ind)
  yg139                   1.00   -nan(ind)  -nan(ind)  -nan(ind)  -nan(ind)  -nan(ind)  -nan(ind)  -nan(ind)  -nan(ind)  -nan(ind)
  yg140                   1.00   -nan(ind)  -nan(ind)  -nan(ind)  -nan(ind)  -nan(ind)  -nan(ind)  -nan(ind)  -nan(ind)  -nan(ind)
  yg141                   1.00   -nan(ind)  -nan(ind)  -nan(ind)  -nan(ind)  -nan(ind)  -nan(ind)  -nan(ind)  -nan(ind)  -nan(ind)
  yg143                   1.00   -nan(ind)  -nan(ind)  -nan(ind)  -nan(ind)  -nan(ind)  -nan(ind)  -nan(ind)  -nan(ind)  -nan(ind)
  yg144                   1.00   -nan(ind)  -nan(ind)  -nan(ind)  -nan(ind)  -nan(ind)  -nan(ind)  -nan(ind)  -nan(ind)  -nan(ind)
  yg145                   1.00   -nan(ind)  -nan(ind)  -nan(ind)  -nan(ind)  -nan(ind)  -nan(ind)  -nan(ind)  -nan(ind)  -nan(ind)
  yg146                   1.00   -nan(ind)  -nan(ind)  -nan(ind)  -nan(ind)  -nan(ind)  -nan(ind)  -nan(ind)  -nan(ind)  -nan(ind)
  yg147                   1.00   -nan(ind)  -nan(ind)  -nan(ind)  -nan(ind)  -nan(ind)  -nan(ind)  -nan(ind)  -nan(ind)  -nan(ind)
  yg148                   1.68   -nan(ind)  -nan(ind)  -nan(ind)  -nan(ind)  -nan(ind)  -nan(ind)  -nan(ind)  -nan(ind)  -nan(ind)
  yg149                   1.00   -nan(ind)  -nan(ind)  -nan(ind)  -nan(ind)  -nan(ind)  -nan(ind)  -nan(ind)  -nan(ind)  -nan(ind)
  yg150                   1.00   -nan(ind)  -nan(ind)  -nan(ind)  -nan(ind)  -nan(ind)  -nan(ind)  -nan(ind)  -nan(ind)  -nan(ind)
  yg151                   1.00   -nan(ind)  -nan(ind)  -nan(ind)  -nan(ind)  -nan(ind)  -nan(ind)  -nan(ind)  -nan(ind)  -nan(ind)
  yg152                   1.00   -nan(ind)  -nan(ind)  -nan(ind)  -nan(ind)  -nan(ind)  -nan(ind)  -nan(ind)  -nan(ind)  -nan(ind)
  yg153                   1.00   -nan(ind)  -nan(ind)  -nan(ind)  -nan(ind)  -nan(ind)  -nan(ind)  -nan(ind)  -nan(ind)  -nan(ind)
  yg155                   1.00   -nan(ind)  -nan(ind)  -nan(ind)  -nan(ind)  -nan(ind)  -nan(ind)  -nan(ind)  -nan(ind)  -nan(ind)
  yg156                   1.00   -nan(ind)  -nan(ind)  -nan(ind)  -nan(ind)  -nan(ind)  -nan(ind)  -nan(ind)  -nan(ind)  -nan(ind)
  yg157                   1.00   -nan(ind)  -nan(ind)  -nan(ind)  -nan(ind)  -nan(ind)  -nan(ind)  -nan(ind)  -nan(ind)  -nan(ind)
  yg158                   1.00   -nan(ind)  -nan(ind)  -nan(ind)  -nan(ind)  -nan(ind)  -nan(ind)  -nan(ind)  -nan(ind)  -nan(ind)
  yg159                   1.00   -nan(ind)  -nan(ind)  -nan(ind)  -nan(ind)  -nan(ind)  -nan(ind)  -nan(ind)  -nan(ind)  -nan(ind)
  yg160                   1.00   -nan(ind)  -nan(ind)  -nan(ind)  -nan(ind)  -nan(ind)  -nan(ind)  -nan(ind)  -nan(ind)  -nan(ind)
  yg161                   1.00   -nan(ind)  -nan(ind)  -nan(ind)  -nan(ind)  -nan(ind)  -nan(ind)  -nan(ind)  -nan(ind)  -nan(ind)
  yg162                   1.00   -nan(ind)  -nan(ind)  -nan(ind)  -nan(ind)  -nan(ind)  -nan(ind)  -nan(ind)  -nan(ind)  -nan(ind)
  yg163                   1.00   -nan(ind)  -nan(ind)  -nan(ind)  -nan(ind)  -nan(ind)  -nan(ind)  -nan(ind)  -nan(ind)  -nan(ind)
  yg164                   1.00   -nan(ind)  -nan(ind)  -nan(ind)  -nan(ind)  -nan(ind)  -nan(ind)  -nan(ind)  -nan(ind)  -nan(ind)
  yg165                   1.00   -nan(ind)  -nan(ind)  -nan(ind)  -nan(ind)  -nan(ind)  -nan(ind)  -nan(ind)  -nan(ind)  -nan(ind)
  yg166                   1.00   -nan(ind)  -nan(ind)  -nan(ind)  -nan(ind)  -nan(ind)  -nan(ind)  -nan(ind)  -nan(ind)  -nan(ind)
  yg167                   1.00   -nan(ind)  -nan(ind)  -nan(ind)  -nan(ind)  -nan(ind)  -nan(ind)  -nan(ind)  -nan(ind)  -nan(ind)
  yg168                   1.00   -nan(ind)  -nan(ind)  -nan(ind)  -nan(ind)  -nan(ind)  -nan(ind)  -nan(ind)  -nan(ind)  -nan(ind)
  yg169                   1.00   -nan(ind)  -nan(ind)  -nan(ind)  -nan(ind)  -nan(ind)  -nan(ind)  -nan(ind)  -nan(ind)  -nan(ind)
  yg170                   1.00   -nan(ind)  -nan(ind)  -nan(ind)  -nan(ind)  -nan(ind)  -nan(ind)  -nan(ind)  -nan(ind)  -nan(ind)
  yg171                   1.00   -nan(ind)  -nan(ind)  -nan(ind)  -nan(ind)  -nan(ind)  -nan(ind)  -nan(ind)  -nan(ind)  -nan(ind)
  yg172                   1.00   -nan(ind)  -nan(ind)  -nan(ind)  -nan(ind)  -nan(ind)  -nan(ind)  -nan(ind)  -nan(ind)  -nan(ind)
  yg173                   1.00   -nan(ind)  -nan(ind)  -nan(ind)  -nan(ind)  -nan(ind)  -nan(ind)  -nan(ind)  -nan(ind)  -nan(ind)
  yg174                   1.00   -nan(ind)  -nan(ind)  -nan(ind)  -nan(ind)  -nan(ind)  -nan(ind)  -nan(ind)  -nan(ind)  -nan(ind)
  yg175                   1.00   -nan(ind)  -nan(ind)  -nan(ind)  -nan(ind)  -nan(ind)  -nan(ind)  -nan(ind)  -nan(ind)  -nan(ind)
  yg176                   1.00   -nan(ind)  -nan(ind)  -nan(ind)  -nan(ind)  -nan(ind)  -nan(ind)  -nan(ind)  -nan(ind)  -nan(ind)
  yg177                   1.00   -nan(ind)  -nan(ind)  -nan(ind)  -nan(ind)  -nan(ind)  -nan(ind)  -nan(ind)  -nan(ind)  -nan(ind)
  yg178                   1.00   -nan(ind)  -nan(ind)  -nan(ind)  -nan(ind)  -nan(ind)  -nan(ind)  -nan(ind)  -nan(ind)  -nan(ind)
  yg179                   1.00   -nan(ind)  -nan(ind)  -nan(ind)  -nan(ind)  -nan(ind)  -nan(ind)  -nan(ind)  -nan(ind)  -nan(ind)
  yg180                   1.00   -nan(ind)  -nan(ind)  -nan(ind)  -nan(ind)  -nan(ind)  -nan(ind)  -nan(ind)  -nan(ind)  -nan(ind)
  yg181                   1.00   -nan(ind)  -nan(ind)  -nan(ind)  -nan(ind)  -nan(ind)  -nan(ind)  -nan(ind)  -nan(ind)  -nan(ind)
  yg182                   1.00   -nan(ind)  -nan(ind)  -nan(ind)  -nan(ind)  -nan(ind)  -nan(ind)  -nan(ind)  -nan(ind)  -nan(ind)
  yg183                   1.00   -nan(ind)  -nan(ind)  -nan(ind)  -nan(ind)  -nan(ind)  -nan(ind)  -nan(ind)  -nan(ind)  -nan(ind)
  yg184                   1.00   -nan(ind)  -nan(ind)  -nan(ind)  -nan(ind)  -nan(ind)  -nan(ind)  -nan(ind)  -nan(ind)  -nan(ind)
  yg185                   1.00   -nan(ind)  -nan(ind)  -nan(ind)  -nan(ind)  -nan(ind)  -nan(ind)  -nan(ind)  -nan(ind)  -nan(ind)
  yg186                   1.00   -nan(ind)  -nan(ind)  -nan(ind)  -nan(ind)  -nan(ind)  -nan(ind)  -nan(ind)  -nan(ind)  -nan(ind)
  yg187                   1.00   -nan(ind)  -nan(ind)  -nan(ind)  -nan(ind)  -nan(ind)  -nan(ind)  -nan(ind)  -nan(ind)  -nan(ind)
  yg188                   1.00   -nan(ind)  -nan(ind)  -nan(ind)  -nan(ind)  -nan(ind)  -nan(ind)  -nan(ind)  -nan(ind)  -nan(ind)
  yg189                   1.00   -nan(ind)  -nan(ind)  -nan(ind)  -nan(ind)  -nan(ind)  -nan(ind)  -nan(ind)  -nan(ind)  -nan(ind)
  yg201                   1.00   -nan(ind)  -nan(ind)  -nan(ind)  -nan(ind)  -nan(ind)  -nan(ind)  -nan(ind)  -nan(ind)  -nan(ind)
  yg202                   1.00   -nan(ind)  -nan(ind)  -nan(ind)  -nan(ind)  -nan(ind)  -nan(ind)  -nan(ind)  -nan(ind)  -nan(ind)
  yg203                   1.00   -nan(ind)  -nan(ind)  -nan(ind)  -nan(ind)  -nan(ind)  -nan(ind)  -nan(ind)  -nan(ind)  -nan(ind)
  yg204                   1.00   -nan(ind)  -nan(ind)  -nan(ind)  -nan(ind)  -nan(ind)  -nan(ind)  -nan(ind)  -nan(ind)  -nan(ind)
  yg205                   1.00   -nan(ind)  -nan(ind)  -nan(ind)  -nan(ind)  -nan(ind)  -nan(ind)  -nan(ind)  -nan(ind)  -nan(ind)
  yg206                   1.00   -nan(ind)  -nan(ind)  -nan(ind)  -nan(ind)  -nan(ind)  -nan(ind)  -nan(ind)  -nan(ind)  -nan(ind)
  yg207                   1.00   -nan(ind)  -nan(ind)  -nan(ind)  -nan(ind)  -nan(ind)  -nan(ind)  -nan(ind)  -nan(ind)  -nan(ind)
  yg208                   1.00   -nan(ind)  -nan(ind)  -nan(ind)  -nan(ind)  -nan(ind)  -nan(ind)  -nan(ind)  -nan(ind)  -nan(ind)
  yg209                   1.00   -nan(ind)  -nan(ind)  -nan(ind)  -nan(ind)  -nan(ind)  -nan(ind)  -nan(ind)  -nan(ind)  -nan(ind)
  yg210                   1.00   -nan(ind)  -nan(ind)  -nan(ind)  -nan(ind)  -nan(ind)  -nan(ind)  -nan(ind)  -nan(ind)  -nan(ind)
  yg211                   1.00   -nan(ind)  -nan(ind)  -nan(ind)  -nan(ind)  -nan(ind)  -nan(ind)  -nan(ind)  -nan(ind)  -nan(ind)
  yg212                   1.00   -nan(ind)  -nan(ind)  -nan(ind)  -nan(ind)  -nan(ind)  -nan(ind)  -nan(ind)  -nan(ind)  -nan(ind)
  yg213                   1.00   -nan(ind)  -nan(ind)  -nan(ind)  -nan(ind)  -nan(ind)  -nan(ind)  -nan(ind)  -nan(ind)  -nan(ind)
  yg232                   1.00   -nan(ind)  -nan(ind)  -nan(ind)  -nan(ind)  -nan(ind)  -nan(ind)  -nan(ind)  -nan(ind)  -nan(ind)
  yg233                   1.00   -nan(ind)  -nan(ind)  -nan(ind)  -nan(ind)  -nan(ind)  -nan(ind)  -nan(ind)  -nan(ind)  -nan(ind)
  yg234                   1.00   -nan(ind)  -nan(ind)  -nan(ind)  -nan(ind)  -nan(ind)  -nan(ind)  -nan(ind)  -nan(ind)  -nan(ind)
  yg235                   1.00   -nan(ind)  -nan(ind)  -nan(ind)  -nan(ind)  -nan(ind)  -nan(ind)  -nan(ind)  -nan(ind)  -nan(ind)
  yg236                   1.00   -nan(ind)  -nan(ind)  -nan(ind)  -nan(ind)  -nan(ind)  -nan(ind)  -nan(ind)  -nan(ind)  -nan(ind)
  yg237                   1.00   -nan(ind)  -nan(ind)  -nan(ind)  -nan(ind)  -nan(ind)  -nan(ind)  -nan(ind)  -nan(ind)  -nan(ind)
  yg238                   1.00   -nan(ind)  -nan(ind)  -nan(ind)  -nan(ind)  -nan(ind)  -nan(ind)  -nan(ind)  -nan(ind)  -nan(ind)
  yg240                   1.00   -nan(ind)  -nan(ind)  -nan(ind)  -nan(ind)  -nan(ind)  -nan(ind)  -nan(ind)  -nan(ind)  -nan(ind)
  yg241                   1.00   -nan(ind)  -nan(ind)  -nan(ind)  -nan(ind)  -nan(ind)  -nan(ind)  -nan(ind)  -nan(ind)  -nan(ind)
  yg242                   1.00   -nan(ind)  -nan(ind)  -nan(ind)  -nan(ind)  -nan(ind)  -nan(ind)  -nan(ind)  -nan(ind)  -nan(ind)
  yg113                   1.00   -nan(ind)  -nan(ind)  -nan(ind)  -nan(ind)  -nan(ind)  -nan(ind)  -nan(ind)  -nan(ind)  -nan(ind)
  yg131                   1.00   -nan(ind)  -nan(ind)  -nan(ind)  -nan(ind)  -nan(ind)  -nan(ind)  -nan(ind)  -nan(ind)  -nan(ind)
  yg142                   1.00   -nan(ind)  -nan(ind)  -nan(ind)  -nan(ind)  -nan(ind)  -nan(ind)  -nan(ind)  -nan(ind)  -nan(ind)
  yg154                   1.00   -nan(ind)  -nan(ind)  -nan(ind)  -nan(ind)  -nan(ind)  -nan(ind)  -nan(ind)  -nan(ind)  -nan(ind)
  yg190                   1.00   -nan(ind)  -nan(ind)  -nan(ind)  -nan(ind)  -nan(ind)  -nan(ind)  -nan(ind)  -nan(ind)  -nan(ind)
  yg191                   1.00   -nan(ind)  -nan(ind)  -nan(ind)  -nan(ind)  -nan(ind)  -nan(ind)  -nan(ind)  -nan(ind)  -nan(ind)
  yg192                   1.00   -nan(ind)  -nan(ind)  -nan(ind)  -nan(ind)  -nan(ind)  -nan(ind)  -nan(ind)  -nan(ind)  -nan(ind)
  yg193                   1.00   -nan(ind)  -nan(ind)  -nan(ind)  -nan(ind)  -nan(ind)  -nan(ind)  -nan(ind)  -nan(ind)  -nan(ind)
  yg194                   1.00   -nan(ind)  -nan(ind)  -nan(ind)  -nan(ind)  -nan(ind)  -nan(ind)  -nan(ind)  -nan(ind)  -nan(ind)
  yg195                   1.00   -nan(ind)  -nan(ind)  -nan(ind)  -nan(ind)  -nan(ind)  -nan(ind)  -nan(ind)  -nan(ind)  -nan(ind)
  yg196                   1.00   -nan(ind)  -nan(ind)  -nan(ind)  -nan(ind)  -nan(ind)  -nan(ind)  -nan(ind)  -nan(ind)  -nan(ind)
  yg197                   1.00   -nan(ind)  -nan(ind)  -nan(ind)  -nan(ind)  -nan(ind)  -nan(ind)  -nan(ind)  -nan(ind)  -nan(ind)
  yg198                   1.00   -nan(ind)  -nan(ind)  -nan(ind)  -nan(ind)  -nan(ind)  -nan(ind)  -nan(ind)  -nan(ind)  -nan(ind)
  yg199                   1.00   -nan(ind)  -nan(ind)  -nan(ind)  -nan(ind)  -nan(ind)  -nan(ind)  -nan(ind)  -nan(ind)  -nan(ind)
  yg200                   1.00   -nan(ind)  -nan(ind)  -nan(ind)  -nan(ind)  -nan(ind)  -nan(ind)  -nan(ind)  -nan(ind)  -nan(ind)
  yg214                   1.51   -nan(ind)  -nan(ind)  -nan(ind)  -nan(ind)  -nan(ind)  -nan(ind)  -nan(ind)  -nan(ind)  -nan(ind)
  yg215                   1.00   -nan(ind)  -nan(ind)  -nan(ind)  -nan(ind)  -nan(ind)  -nan(ind)  -nan(ind)  -nan(ind)  -nan(ind)
  yg216                   1.00   -nan(ind)  -nan(ind)  -nan(ind)  -nan(ind)  -nan(ind)  -nan(ind)  -nan(ind)  -nan(ind)  -nan(ind)
  yg217                   1.00   -nan(ind)  -nan(ind)  -nan(ind)  -nan(ind)  -nan(ind)  -nan(ind)  -nan(ind)  -nan(ind)  -nan(ind)
  1                       1.00   -nan(ind)  -nan(ind)  -nan(ind)  -nan(ind)  -nan(ind)  -nan(ind)  -nan(ind)  -nan(ind)  -nan(ind)
  yg218                   1.00   -nan(ind)  -nan(ind)  -nan(ind)  -nan(ind)  -nan(ind)  -nan(ind)  -nan(ind)  -nan(ind)  -nan(ind)
  4                       1.00   -nan(ind)  -nan(ind)  -nan(ind)  -nan(ind)  -nan(ind)  -nan(ind)  -nan(ind)  -nan(ind)  -nan(ind)
  8                       1.00   -nan(ind)  -nan(ind)  -nan(ind)  -nan(ind)  -nan(ind)  -nan(ind)  -nan(ind)  -nan(ind)  -nan(ind)
  9                       1.00   -nan(ind)  -nan(ind)  -nan(ind)  -nan(ind)  -nan(ind)  -nan(ind)  -nan(ind)  -nan(ind)  -nan(ind)
  10                      1.33   -nan(ind)  -nan(ind)  -nan(ind)  -nan(ind)  -nan(ind)  -nan(ind)  -nan(ind)  -nan(ind)  -nan(ind)
  2                       1.00   -nan(ind)  -nan(ind)  -nan(ind)  -nan(ind)  -nan(ind)  -nan(ind)  -nan(ind)  -nan(ind)  -nan(ind)
  3                       1.00   -nan(ind)  -nan(ind)  -nan(ind)  -nan(ind)  -nan(ind)  -nan(ind)  -nan(ind)  -nan(ind)  -nan(ind)
  5                       1.00   -nan(ind)  -nan(ind)  -nan(ind)  -nan(ind)  -nan(ind)  -nan(ind)  -nan(ind)  -nan(ind)  -nan(ind)
  6                       1.00   -nan(ind)  -nan(ind)  -nan(ind)  -nan(ind)  -nan(ind)  -nan(ind)  -nan(ind)  -nan(ind)  -nan(ind)
  7                       1.00   -nan(ind)  -nan(ind)  -nan(ind)  -nan(ind)  -nan(ind)  -nan(ind)  -nan(ind)  -nan(ind)  -nan(ind)
  11                      1.00   -nan(ind)  -nan(ind)  -nan(ind)  -nan(ind)  -nan(ind)  -nan(ind)  -nan(ind)  -nan(ind)  -nan(ind)
  12                      1.00   -nan(ind)  -nan(ind)  -nan(ind)  -nan(ind)  -nan(ind)  -nan(ind)  -nan(ind)  -nan(ind)  -nan(ind)
  14                      1.00   -nan(ind)  -nan(ind)  -nan(ind)  -nan(ind)  -nan(ind)  -nan(ind)  -nan(ind)  -nan(ind)  -nan(ind)
  15                      1.00   -nan(ind)  -nan(ind)  -nan(ind)  -nan(ind)  -nan(ind)  -nan(ind)  -nan(ind)  -nan(ind)  -nan(ind)
  16                      1.00   -nan(ind)  -nan(ind)  -nan(ind)  -nan(ind)  -nan(ind)  -nan(ind)  -nan(ind)  -nan(ind)  -nan(ind)
  18                      1.00   -nan(ind)  -nan(ind)  -nan(ind)  -nan(ind)  -nan(ind)  -nan(ind)  -nan(ind)  -nan(ind)  -nan(ind)
  19                      1.00   -nan(ind)  -nan(ind)  -nan(ind)  -nan(ind)  -nan(ind)  -nan(ind)  -nan(ind)  -nan(ind)  -nan(ind)
  20                      1.00   -nan(ind)  -nan(ind)  -nan(ind)  -nan(ind)  -nan(ind)  -nan(ind)  -nan(ind)  -nan(ind)  -nan(ind)
  21                      1.00   -nan(ind)  -nan(ind)  -nan(ind)  -nan(ind)  -nan(ind)  -nan(ind)  -nan(ind)  -nan(ind)  -nan(ind)
  22                      1.00   -nan(ind)  -nan(ind)  -nan(ind)  -nan(ind)  -nan(ind)  -nan(ind)  -nan(ind)  -nan(ind)  -nan(ind)
  23                      1.00   -nan(ind)  -nan(ind)  -nan(ind)  -nan(ind)  -nan(ind)  -nan(ind)  -nan(ind)  -nan(ind)  -nan(ind)
  24                      1.00   -nan(ind)  -nan(ind)  -nan(ind)  -nan(ind)  -nan(ind)  -nan(ind)  -nan(ind)  -nan(ind)  -nan(ind)
  25                      1.00   -nan(ind)  -nan(ind)  -nan(ind)  -nan(ind)  -nan(ind)  -nan(ind)  -nan(ind)  -nan(ind)  -nan(ind)
  26                      1.00   -nan(ind)  -nan(ind)  -nan(ind)  -nan(ind)  -nan(ind)  -nan(ind)  -nan(ind)  -nan(ind)  -nan(ind)
  27                      1.00   -nan(ind)  -nan(ind)  -nan(ind)  -nan(ind)  -nan(ind)  -nan(ind)  -nan(ind)  -nan(ind)  -nan(ind)
  28                      1.00   -nan(ind)  -nan(ind)  -nan(ind)  -nan(ind)  -nan(ind)  -nan(ind)  -nan(ind)  -nan(ind)  -nan(ind)
  29                      1.00   -nan(ind)  -nan(ind)  -nan(ind)  -nan(ind)  -nan(ind)  -nan(ind)  -nan(ind)  -nan(ind)  -nan(ind)
  
  
  *************************
  Conduit Surcharge Summary
  *************************
  
  No conduits were surcharged.
  
  
  ***************
  Pumping Summary
  ***************
  
  ---------------------------------------------------------------------------------------------------------
                                                  Min       Avg       Max     Total     Power    % Time Off
                        Percent   Number of      Flow      Flow      Flow    Volume     Usage    Pump Curve
  Pump                 Utilized   Start-Ups       CMS       CMS       CMS  10^6 ltr     Kw-hr    Low   High
  ---------------------------------------------------------------------------------------------------------
  p1                   -nan(ind)           0      0.00      0.00      0.00     0.000      0.00    0.0    0.0
  p2                   -nan(ind)           0      0.00      0.00      0.00     0.000      0.00    0.0    0.0
  p3                   -nan(ind)           0      0.00      0.00      0.00     0.000      0.00    0.0    0.0
  p4                   -nan(ind)           0      0.00      0.00      0.00     0.000      0.00    0.0    0.0
  p5                   -nan(ind)           0      0.00      0.00      0.00     0.000      0.00    0.0    0.0
  p6                   -nan(ind)           0      0.00      0.00      0.00     0.000      0.00    0.0    0.0
  p7                   -nan(ind)           0      0.00      0.00      0.00     0.000      0.00    0.0    0.0
  p8                   -nan(ind)           0      0.00      0.00      0.00     0.000      0.00    0.0    0.0
  p9                   -nan(ind)           0      0.00      0.00      0.00     0.000      0.00    0.0    0.0
  p10                  -nan(ind)           0      0.00      0.00      0.00     0.000      0.00    0.0    0.0
  p11                  -nan(ind)           0      0.00      0.00      0.00     0.000      0.00    0.0    0.0
  

  Analysis begun on:  Sat Nov 30 08:11:33 2019
  Analysis ended on:  Sat Nov 30 08:11:33 2019
  Total elapsed time: < 1 sec