
  EPA STORM WATER MANAGEMENT MODEL - VERSION 5.1 (Build 5.1.013)
  --------------------------------------------------------------

  
  *************
  Element Count
  *************
  Number of rain gages ...... 1
  Number of subcatchments ... 257
  Number of nodes ........... 363
  Number of links ........... 364
  Number of pollutants ...... 0
  Number of land uses ....... 0
  
  
  ****************
  Raingage Summary
  ****************
                                                      Data       Recording
  Name                 Data Source                    Type       Interval 
  ------------------------------------------------------------------------
  CDA~2YR~3HR~10~180   RN#12                          INTENSITY   10 min.
  
  
  ********************
  Subcatchment Summary
  ********************
  Name                       Area     Width   %Imperv    %Slope Rain Gage            Outlet              
  -----------------------------------------------------------------------------------------------------------
  2004#1                     2.39     54.06     63.00    1.1400 CDA~2YR~3HR~10~180   2004                
  2005#1                     0.84     44.45     74.00    5.8700 CDA~2YR~3HR~10~180   2005                
  2006#1                     3.46     85.29     78.00    7.3800 CDA~2YR~3HR~10~180   2006                
  2007#1                     1.06     57.17     70.00    4.7500 CDA~2YR~3HR~10~180   2007                
  2008#1                     0.23     19.37    100.00    4.3500 CDA~2YR~3HR~10~180   2008                
  2009#1                     0.95     23.02    100.00    4.8500 CDA~2YR~3HR~10~180   2009                
  2012#1                     0.80     38.65    100.00    4.1300 CDA~2YR~3HR~10~180   2012                
  2014#1                     2.41     47.56     95.00    4.1000 CDA~2YR~3HR~10~180   2014                
  2015#1                     0.48     34.06     97.00    2.4700 CDA~2YR~3HR~10~180   2015                
  2016#1                     1.03     51.78    100.00    4.5100 CDA~2YR~3HR~10~180   2016                
  2017#1                     1.77     58.24     87.00    3.8700 CDA~2YR~3HR~10~180   2017                
  2020#1                     0.73     47.20     43.00    2.2600 CDA~2YR~3HR~10~180   2020                
  2021#1                     2.24     53.25     28.00    0.5800 CDA~2YR~3HR~10~180   2021                
  2022#1                     2.86     64.11    100.00    4.3200 CDA~2YR~3HR~10~180   2022                
  2023#1                     1.24     61.57     95.00    4.9900 CDA~2YR~3HR~10~180   2023                
  2024#1                     2.83     47.37    100.00    4.8700 CDA~2YR~3HR~10~180   2024                
  2025#1                     0.96     21.29    100.00    4.8500 CDA~2YR~3HR~10~180   2025                
  2026#1                     2.57     37.79     98.00    4.8400 CDA~2YR~3HR~10~180   2026                
  2028#1                     2.34     65.25     31.00    1.9700 CDA~2YR~3HR~10~180   2028                
  2029#1                     1.83     50.97     28.00    2.9400 CDA~2YR~3HR~10~180   2029                
  2030#1                     2.55     55.46     29.00    0.9300 CDA~2YR~3HR~10~180   2030                
  2032#1                     5.63    130.11     41.00    1.4600 CDA~2YR~3HR~10~180   2032                
  2034#1                     1.54    109.10     35.00    1.0600 CDA~2YR~3HR~10~180   2034                
  2036#1                     1.93     67.30     67.00    1.0600 CDA~2YR~3HR~10~180   2036                
  2037#1                     0.52     33.73    100.00    0.5300 CDA~2YR~3HR~10~180   2037                
  2038#1                     1.63     51.47     32.00    1.0700 CDA~2YR~3HR~10~180   2038                
  2039#1                     0.96     16.70     22.00    0.5100 CDA~2YR~3HR~10~180   2039                
  2040#1                     3.03     56.37     37.00    0.4500 CDA~2YR~3HR~10~180   2040                
  2041#1                     2.83     45.58     25.00    1.1700 CDA~2YR~3HR~10~180   2041                
  2042#1                     3.03     42.88     26.00    1.1800 CDA~2YR~3HR~10~180   2042                
  2044#1                     0.69     21.24     34.00    0.5400 CDA~2YR~3HR~10~180   2044                
  2045#1                     1.35     34.00     72.00    2.3900 CDA~2YR~3HR~10~180   2045                
  2046#1                     0.44     22.60    100.00    3.9900 CDA~2YR~3HR~10~180   2046                
  2047#1                     1.91     39.22     71.00    3.9000 CDA~2YR~3HR~10~180   2047                
  2049#1                     0.30     24.61    100.00    5.2700 CDA~2YR~3HR~10~180   2049                
  2060#1                     1.85     66.38     39.00    3.7700 CDA~2YR~3HR~10~180   2060                
  2062#1                     0.52     65.34     37.00    5.6000 CDA~2YR~3HR~10~180   2062                
  2067#1                     1.05     40.22    100.00    4.2600 CDA~2YR~3HR~10~180   2067                
  2068#1                     1.49     49.14     60.00    2.8300 CDA~2YR~3HR~10~180   2068                
  2069#1                     3.64     73.65     42.00    1.4900 CDA~2YR~3HR~10~180   2069                
  2070#1                     2.41     73.96     45.00    1.2300 CDA~2YR~3HR~10~180   2070                
  2072#1                     0.65     19.32     81.00    0.1600 CDA~2YR~3HR~10~180   2072                
  2073#1                     1.00     18.98     96.00    1.5300 CDA~2YR~3HR~10~180   2073                
  2075#1                     0.34     14.68     32.00    2.8300 CDA~2YR~3HR~10~180   2075                
  2076#1                     2.44     78.36     43.00    3.0300 CDA~2YR~3HR~10~180   2076                
  2077#1                     0.64     25.48     96.00    0.4600 CDA~2YR~3HR~10~180   2077                
  2079#1                     0.93     25.96     60.00    2.3500 CDA~2YR~3HR~10~180   2079                
  2080#1                     3.04     46.74     92.00    1.2200 CDA~2YR~3HR~10~180   2080                
  2081#1                     3.24    110.97     83.00    2.9800 CDA~2YR~3HR~10~180   2081                
  2082#1                     0.82     45.95     95.00    5.3000 CDA~2YR~3HR~10~180   2082                
  2086#1                     0.85     19.90     87.00    1.4800 CDA~2YR~3HR~10~180   2086                
  2087#1                     0.73     23.90     95.00    1.5400 CDA~2YR~3HR~10~180   2087                
  2089#1                     1.34     34.04     67.00    2.9000 CDA~2YR~3HR~10~180   2089                
  2090#1                     3.53     45.54     77.00    4.7000 CDA~2YR~3HR~10~180   2090                
  3068#1                     3.61     39.69     64.00    0.1500 CDA~2YR~3HR~10~180   3068                
  3070#1                     2.91     50.67     78.00    0.8200 CDA~2YR~3HR~10~180   3070                
  3092#1                     2.37     54.64     95.00    0.3500 CDA~2YR~3HR~10~180   3092                
  3093#1                     3.88    110.00     93.00    0.4200 CDA~2YR~3HR~10~180   3093                
  3150#1                     0.86     35.59    100.00    1.7600 CDA~2YR~3HR~10~180   3150                
  4001#1                     2.52     50.18     61.00    1.5000 CDA~2YR~3HR~10~180   4001                
  4002#1                     3.65     80.74     52.00    0.5500 CDA~2YR~3HR~10~180   4002                
  4003#1                     5.51     83.20     47.00    0.5600 CDA~2YR~3HR~10~180   4003                
  4004#1                     5.20     84.24     43.00    0.8000 CDA~2YR~3HR~10~180   4004                
  4006#1                     1.80     72.27     31.00    0.5300 CDA~2YR~3HR~10~180   4006                
  4007#1                     1.10     34.01     23.00    0.1700 CDA~2YR~3HR~10~180   4007                
  4008#1                     1.61     46.27     35.00    1.6100 CDA~2YR~3HR~10~180   4008                
  4011#1                     1.31     54.93     75.00    0.1000 CDA~2YR~3HR~10~180   4011                
  4013#1                     1.53     57.64     28.00    0.0700 CDA~2YR~3HR~10~180   4013                
  4014#1                     2.07     66.58     39.00    0.1400 CDA~2YR~3HR~10~180   4014                
  4015#1                     2.28     84.75     28.00    2.0800 CDA~2YR~3HR~10~180   4015                
  4016#1                     2.10     47.66     36.00    2.0800 CDA~2YR~3HR~10~180   4016                
  4017#1                     0.67     39.96     46.00    1.5300 CDA~2YR~3HR~10~180   4017                
  4018#1                     4.34    105.31     45.00    0.3200 CDA~2YR~3HR~10~180   4018                
  4020#1                     0.19     15.72     43.00    0.4500 CDA~2YR~3HR~10~180   4020                
  4021#1                     0.48     19.52     37.00    1.3800 CDA~2YR~3HR~10~180   4021                
  4022#1                     4.34     62.64     51.00    1.4400 CDA~2YR~3HR~10~180   4022                
  4024#1                     6.14     69.31     28.00    0.7500 CDA~2YR~3HR~10~180   4024                
  4025#1                     1.89     23.91     38.00    1.1000 CDA~2YR~3HR~10~180   4025                
  4026#1                     1.02     27.43     41.00    1.7700 CDA~2YR~3HR~10~180   4026                
  4027#1                     0.93     24.89     34.00    0.6800 CDA~2YR~3HR~10~180   4027                
  4028#1                     4.57     74.57     40.00    0.8600 CDA~2YR~3HR~10~180   4028                
  4029#1                     1.02     22.64     41.00    1.2100 CDA~2YR~3HR~10~180   4029                
  4030#1                     2.70     34.05     35.00    1.2900 CDA~2YR~3HR~10~180   4030                
  4031#1                     1.94     36.02     35.00    1.5000 CDA~2YR~3HR~10~180   4031                
  4032#1                     2.35     32.15     51.00    1.7700 CDA~2YR~3HR~10~180   4032                
  4033#1                     2.82     38.91     73.00    0.9300 CDA~2YR~3HR~10~180   4033                
  4034#1                     1.03     31.10     44.00    1.2000 CDA~2YR~3HR~10~180   4034                
  4035#1                     1.14     34.62     27.00    1.1100 CDA~2YR~3HR~10~180   4035                
  4036#1                     1.13     35.69     37.00    0.1400 CDA~2YR~3HR~10~180   4036                
  4037#1                     2.77     55.31     32.00    1.5200 CDA~2YR~3HR~10~180   4037                
  4038#1                     0.93     28.52     36.00    1.6800 CDA~2YR~3HR~10~180   4038                
  4039#1                     0.82     19.11     50.00    0.3100 CDA~2YR~3HR~10~180   4039                
  4040#1                     2.25     73.39     26.00    0.5200 CDA~2YR~3HR~10~180   4040                
  4041#1                     3.50     46.98     34.00    0.2500 CDA~2YR~3HR~10~180   4041                
  4042#1                     2.17     37.33     26.00    0.4000 CDA~2YR~3HR~10~180   4042                
  4044#1                     1.06     21.26     30.00    1.0500 CDA~2YR~3HR~10~180   4044                
  4046#1                     1.60     40.32     34.00    1.6100 CDA~2YR~3HR~10~180   4046                
  4047#1                     3.32     59.32     27.00    1.5300 CDA~2YR~3HR~10~180   4047                
  4048#1                     1.85     46.07     36.00    0.8400 CDA~2YR~3HR~10~180   4048                
  4049#1                     3.05     61.54     34.00    1.0500 CDA~2YR~3HR~10~180   4049                
  4050#1                     1.88     45.98     29.00    0.3600 CDA~2YR~3HR~10~180   4050                
  4051#1                     0.79     22.31     38.00    0.5400 CDA~2YR~3HR~10~180   4051                
  4052#1                     2.02     42.94     31.00    0.7600 CDA~2YR~3HR~10~180   4052                
  4053#1                     2.21     41.85     26.00    0.8000 CDA~2YR~3HR~10~180   4053                
  4056#1                     2.46     44.98     25.00    0.4500 CDA~2YR~3HR~10~180   4056                
  4057#1                     0.60     19.97     81.00    0.7200 CDA~2YR~3HR~10~180   4057                
  4058#1                     2.05     40.73     53.00    0.5800 CDA~2YR~3HR~10~180   4058                
  4059#1                     6.12    186.24     87.00    0.4000 CDA~2YR~3HR~10~180   4059                
  4060#1                     2.67     64.56     17.00    0.6200 CDA~2YR~3HR~10~180   4060                
  4061#1                     2.01     61.32     26.00    0.8600 CDA~2YR~3HR~10~180   4061                
  4062#1                     1.05     21.40     33.00    0.5100 CDA~2YR~3HR~10~180   4062                
  4063#1                     3.17     59.76     26.00    0.5500 CDA~2YR~3HR~10~180   4063                
  4064#1                     2.05     48.90     34.00    0.4600 CDA~2YR~3HR~10~180   4064                
  4065#1                     1.90     43.68     26.00    0.5000 CDA~2YR~3HR~10~180   4065                
  4066#1                     2.48     52.16     26.00    0.8300 CDA~2YR~3HR~10~180   4066                
  4067#1                     2.08     45.23     45.00    1.5400 CDA~2YR~3HR~10~180   4067                
  4068#1                     4.53     39.22     48.00    1.1000 CDA~2YR~3HR~10~180   4068                
  4071#1                     3.74     26.51     20.00    1.9500 CDA~2YR~3HR~10~180   4071                
  4073#1                     0.78     36.71     33.00    0.5200 CDA~2YR~3HR~10~180   4073                
  4074#1                     1.52     53.65     35.00    0.4900 CDA~2YR~3HR~10~180   4074                
  4075#1                     0.65     19.50     25.00    0.5600 CDA~2YR~3HR~10~180   4075                
  4076#1                     2.35     57.44     33.00    0.6900 CDA~2YR~3HR~10~180   4076                
  4077#1                     0.68     36.85     32.00    0.3200 CDA~2YR~3HR~10~180   4077                
  4078#1                     1.37     27.48     26.00    0.1600 CDA~2YR~3HR~10~180   4078                
  4079#1                     4.44     81.88     32.00    1.5500 CDA~2YR~3HR~10~180   4079                
  4083#1                     8.65    143.68     64.00    1.9100 CDA~2YR~3HR~10~180   4083                
  4085#1                     0.73     24.98     37.00    0.4700 CDA~2YR~3HR~10~180   4085                
  4087#1                     0.70     26.43     32.00    0.6100 CDA~2YR~3HR~10~180   4087                
  4089#1                     2.88     52.52     27.00    1.0100 CDA~2YR~3HR~10~180   4089                
  4090#1                     2.90     67.64     32.00    0.8300 CDA~2YR~3HR~10~180   4090                
  4091#1                     2.32     60.53     35.00    2.1000 CDA~2YR~3HR~10~180   4091                
  4092#1                     0.14      9.58     43.00    1.7600 CDA~2YR~3HR~10~180   4092                
  4093#1                     0.96     33.84     37.00    1.2700 CDA~2YR~3HR~10~180   4093                
  4094#1                     5.46     85.20     66.00    1.7400 CDA~2YR~3HR~10~180   4094                
  4095#1                     0.62     20.96     37.00    0.4500 CDA~2YR~3HR~10~180   4095                
  4096#1                     1.23     24.07     73.00    1.5700 CDA~2YR~3HR~10~180   4096                
  4098#1                     1.54     81.89     47.00    0.9100 CDA~2YR~3HR~10~180   4098                
  4099#1                     0.36     19.26     47.00    0.4300 CDA~2YR~3HR~10~180   4099                
  4100#1                     2.39     43.89     32.00    1.0000 CDA~2YR~3HR~10~180   4100                
  4101#1                     0.37     14.02     24.00    0.6600 CDA~2YR~3HR~10~180   4101                
  4102#1                     1.60     33.03     29.00    1.0000 CDA~2YR~3HR~10~180   4102                
  4103#1                     0.26     20.91     63.00    0.7700 CDA~2YR~3HR~10~180   4103                
  4105#1                     2.82     60.81     62.00    0.6900 CDA~2YR~3HR~10~180   4105                
  4106#1                     0.90     20.91     79.00    0.1300 CDA~2YR~3HR~10~180   4106                
  4107#1                     3.43     32.05     71.00    0.6200 CDA~2YR~3HR~10~180   4107                
  4108#1                     2.60     35.05     55.00    1.1900 CDA~2YR~3HR~10~180   4108                
  4109#1                     2.56     31.50     43.00    1.1200 CDA~2YR~3HR~10~180   4109                
  4110#1                     8.01    108.80     27.00    1.4100 CDA~2YR~3HR~10~180   4110                
  4113#1                     1.93     26.15     26.00    0.9400 CDA~2YR~3HR~10~180   4113                
  4114#1                     6.04     81.60     28.00    0.9700 CDA~2YR~3HR~10~180   4114                
  4118#1                     2.71     62.97     65.00    1.4800 CDA~2YR~3HR~10~180   4118                
  4126#1                     1.62     65.55     17.00    0.7000 CDA~2YR~3HR~10~180   4126                
  4128#1                     0.30     24.81     83.00    1.3100 CDA~2YR~3HR~10~180   4128                
  4131#1                     1.34     27.87     35.00    0.6100 CDA~2YR~3HR~10~180   4131                
  4132#1                     1.57     33.63     29.00    0.4300 CDA~2YR~3HR~10~180   4132                
  4133#1                     0.14      9.90     34.00    0.5100 CDA~2YR~3HR~10~180   4133                
  4135#1                     0.34     36.16     70.00    0.8100 CDA~2YR~3HR~10~180   4135                
  4138#1                     1.80     25.78     75.00    1.2700 CDA~2YR~3HR~10~180   4138                
  4139#1                     1.66     39.04     58.00    0.5300 CDA~2YR~3HR~10~180   4139                
  4141#1                     1.33     53.87    100.00    0.9900 CDA~2YR~3HR~10~180   4141                
  4144#1                     0.43     16.76    100.00    0.1700 CDA~2YR~3HR~10~180   4144                
  4147#1                     1.76     56.15     21.00    0.2300 CDA~2YR~3HR~10~180   4147                
  4148#1                     0.59     26.63     32.00    0.9300 CDA~2YR~3HR~10~180   4148                
  4150#1                     3.24     67.13     33.00    0.9700 CDA~2YR~3HR~10~180   4150                
  4152#1                     0.63     15.90     34.00    1.2500 CDA~2YR~3HR~10~180   4152                
  4153#1                     1.23     39.45     51.00    0.6800 CDA~2YR~3HR~10~180   4153                
  4155#1                     0.46     23.21     18.00    2.2000 CDA~2YR~3HR~10~180   4155                
  4156#1                     0.45     22.58     31.00    1.0100 CDA~2YR~3HR~10~180   4156                
  4159#1                     0.73     25.63     32.00    1.0100 CDA~2YR~3HR~10~180   4159                
  4160#1                     0.72    151.90     27.00    0.4000 CDA~2YR~3HR~10~180   4160                
  4162#1                     2.72    153.20     36.00    2.2500 CDA~2YR~3HR~10~180   4162                
  4166#1                     0.64     22.77     24.00    0.2300 CDA~2YR~3HR~10~180   4166                
  4167#1                     0.49     22.83     29.00    0.4800 CDA~2YR~3HR~10~180   4167                
  4169#1                     1.01     44.52     27.00    0.7000 CDA~2YR~3HR~10~180   4169                
  4171#1                     0.47     27.40     32.00    0.2700 CDA~2YR~3HR~10~180   4171                
  4202#1                     0.38     40.92     74.00    0.7200 CDA~2YR~3HR~10~180   4202                
  5025#1                     2.32    136.88     45.00    1.8400 CDA~2YR~3HR~10~180   5025                
  5046#1                     0.54     26.48     82.00    0.2400 CDA~2YR~3HR~10~180   5046                
  5051#1                     3.45     55.54     97.00    0.7000 CDA~2YR~3HR~10~180   5051                
  6024#1                     0.78     39.53     37.00    2.0800 CDA~2YR~3HR~10~180   6024                
  6025#1                     2.16     80.79     33.00    4.5300 CDA~2YR~3HR~10~180   6025                
  6026#1                     0.73     42.49     39.00    4.0800 CDA~2YR~3HR~10~180   6026                
  6032#1                     1.71     59.86     31.00    6.4200 CDA~2YR~3HR~10~180   6032                
  6038#1                     2.24     56.09     30.00    6.2800 CDA~2YR~3HR~10~180   6038                
  6040#1                     0.59     21.61     24.00    8.4200 CDA~2YR~3HR~10~180   6040                
  6054#1                     2.66     75.89     29.00    8.0400 CDA~2YR~3HR~10~180   6054                
  6055#1                     4.76    126.83     36.00    2.0800 CDA~2YR~3HR~10~180   6055                
  6059#1                     3.59     82.71     21.00    1.4000 CDA~2YR~3HR~10~180   6059                
  6061#1                     1.94    133.83     36.00    3.3200 CDA~2YR~3HR~10~180   6061                
  6063#1                     0.87     32.52     32.00    2.0500 CDA~2YR~3HR~10~180   6063                
  6065#1                     2.67     77.96     50.00    1.7200 CDA~2YR~3HR~10~180   6065                
  6067#1                     0.79     35.12     32.00    1.7100 CDA~2YR~3HR~10~180   6067                
  6072#1                     0.81     49.21     54.00    0.0600 CDA~2YR~3HR~10~180   6072                
  6075#1                     0.32     23.95    100.00    0.4600 CDA~2YR~3HR~10~180   6075                
  6078#1                     0.37     24.30     32.00    0.9900 CDA~2YR~3HR~10~180   6078                
  8012#1                     1.75     74.44     66.00    1.0100 CDA~2YR~3HR~10~180   8012                
  8013#1                     2.87     61.99     26.00    1.6300 CDA~2YR~3HR~10~180   8013                
  8014#1                     0.30     24.50     96.00    1.2000 CDA~2YR~3HR~10~180   8014                
  8015#1                     1.40     66.39     59.00    1.6900 CDA~2YR~3HR~10~180   8015                
  8016#1                     1.67     49.23     84.00    0.9300 CDA~2YR~3HR~10~180   8016                
  8018#1                     2.41     90.78     52.00    1.0900 CDA~2YR~3HR~10~180   8018                
  8020#1                     4.23     80.11     27.00    1.3700 CDA~2YR~3HR~10~180   8020                
  8021#1                     1.42     35.23     17.00    0.3100 CDA~2YR~3HR~10~180   8021                
  8024#1                     1.81     44.33     29.00    0.3800 CDA~2YR~3HR~10~180   8024                
  8025#1                     1.25     32.92     33.00    0.4200 CDA~2YR~3HR~10~180   8025                
  8026#1                     0.88     40.56     34.00    0.5100 CDA~2YR~3HR~10~180   8026                
  8027#1                     3.01     53.65     42.00    1.4200 CDA~2YR~3HR~10~180   8027                
  8028#1                     1.96     44.05     32.00    1.8700 CDA~2YR~3HR~10~180   8028                
  8029#1                     1.79     65.19     32.00    1.8000 CDA~2YR~3HR~10~180   8029                
  8031#1                     1.32     22.07     37.00    0.8500 CDA~2YR~3HR~10~180   8031                
  8032#1                     1.02     27.46     32.00    0.9300 CDA~2YR~3HR~10~180   8032                
  8033#1                     2.15     57.55     34.00    0.7600 CDA~2YR~3HR~10~180   8033                
  8035#1                     0.61     37.38     34.00    0.5000 CDA~2YR~3HR~10~180   8035                
  8036#1                     1.81     36.86     37.00    0.5800 CDA~2YR~3HR~10~180   8036                
  8037#1                     0.42     24.88     23.00    0.1100 CDA~2YR~3HR~10~180   8037                
  8038#1                     0.94     35.29     43.00    0.4900 CDA~2YR~3HR~10~180   8038                
  8039#1                     1.11     49.62     30.00    0.5800 CDA~2YR~3HR~10~180   8039                
  8040#1                     0.42     18.20     37.00    0.1200 CDA~2YR~3HR~10~180   8040                
  8041#1                     2.28     47.73     31.00    0.9200 CDA~2YR~3HR~10~180   8041                
  8042#1                     2.12     16.95     37.00    0.2500 CDA~2YR~3HR~10~180   8042                
  8044#1                     1.67     49.98     30.00    0.5300 CDA~2YR~3HR~10~180   8044                
  8045#1                     2.85     42.81     27.00    0.3300 CDA~2YR~3HR~10~180   8045                
  8046#1                     1.08     20.54     32.00    0.0500 CDA~2YR~3HR~10~180   8046                
  8047#1                     0.54     21.00     28.00    0.2500 CDA~2YR~3HR~10~180   8047                
  8048#1                     1.59     37.57     33.00    0.2800 CDA~2YR~3HR~10~180   8048                
  8049#1                     0.57     19.36     30.00    0.7600 CDA~2YR~3HR~10~180   8049                
  8051#1                     1.27     41.08     38.00    1.2700 CDA~2YR~3HR~10~180   8051                
  8053#1                     1.55     52.11     32.00    1.6300 CDA~2YR~3HR~10~180   8053                
  8055#1                     1.33     60.35     79.00    0.2800 CDA~2YR~3HR~10~180   8055                
  8057#1                     0.62     58.67     87.00    2.1700 CDA~2YR~3HR~10~180   8057                
  8059#1                     0.46     37.02    100.00    1.0200 CDA~2YR~3HR~10~180   8059                
  8064#1                     0.93     55.67     97.00    0.0700 CDA~2YR~3HR~10~180   8064                
  8067#1                     1.04     45.74    100.00    0.5600 CDA~2YR~3HR~10~180   8067                
  8068#1                     6.32    147.80     46.00    1.2600 CDA~2YR~3HR~10~180   8068                
  10002#1                    3.40     26.97     47.00    0.4700 CDA~2YR~3HR~10~180   10002               
  10008#1                    5.08    116.44     12.00    0.4100 CDA~2YR~3HR~10~180   10008               
  10009#1                    2.12     39.99     28.00    0.6400 CDA~2YR~3HR~10~180   10009               
  10010#1                    1.50     34.75     46.00    0.5900 CDA~2YR~3HR~10~180   10010               
  10011#1                    6.13    164.51     11.00    0.5600 CDA~2YR~3HR~10~180   10011               
  10012#1                    0.94     38.53     12.00    1.7900 CDA~2YR~3HR~10~180   10012               
  10017#1                    6.70    115.18     30.00    2.8200 CDA~2YR~3HR~10~180   10017               
  10018#1                    8.81    103.87     21.00    1.2100 CDA~2YR~3HR~10~180   10018               
  10019#1                    0.71     20.45     45.00    0.3400 CDA~2YR~3HR~10~180   10019               
  10020#1                    1.29     52.88     69.00    1.3100 CDA~2YR~3HR~10~180   10020               
  10021#1                    8.95    138.34     30.00    0.5900 CDA~2YR~3HR~10~180   10021               
  10022#1                    1.07     20.17     43.00    0.6700 CDA~2YR~3HR~10~180   10022               
  10029#1                    1.78     61.50     80.00    0.7700 CDA~2YR~3HR~10~180   10029               
  10033#1                    6.10     79.00     47.00    0.8300 CDA~2YR~3HR~10~180   10033               
  10034#1                    0.95     24.52     73.00    0.5600 CDA~2YR~3HR~10~180   10034               
  10044#1                    1.99     72.95     31.00    0.7600 CDA~2YR~3HR~10~180   10044               
  10052#1                    1.49    156.40     75.00    2.6400 CDA~2YR~3HR~10~180   10052               
  3314#1                     3.40    144.10     31.00    0.2800 CDA~2YR~3HR~10~180   3314                
  3315#1                     2.40     92.24     68.00    1.0800 CDA~2YR~3HR~10~180   3315                
  4045s#1                    4.68    129.64     62.00    0.8600 CDA~2YR~3HR~10~180   4045s               
  4145s#1                    0.87     78.50     23.00    2.5200 CDA~2YR~3HR~10~180   4145s               
  3035s#1                    3.08    298.50     52.00    0.8600 CDA~2YR~3HR~10~180   3035s               
  4070s#1                    5.83     73.84     29.00    2.4700 CDA~2YR~3HR~10~180   4070s               
  
  
  ************
  Node Summary
  ************
                                           Invert      Max.    Ponded    External
  Name                 Type                 Elev.     Depth      Area    Inflow  
  -------------------------------------------------------------------------------
  2004                 JUNCTION            381.34      1.56       0.0
  2005                 JUNCTION            365.35      3.35       0.0
  2006                 JUNCTION            365.85      2.72       0.0
  2007                 JUNCTION            366.89      3.16       0.0
  2008                 JUNCTION            367.18      3.46       0.0
  2009                 JUNCTION            367.47      3.34       0.0
  2012                 JUNCTION            370.18      2.82       0.0
  2014                 JUNCTION            368.14      3.14       0.0
  2015                 JUNCTION            368.48      4.52       0.0
  2016                 JUNCTION            368.78      2.79       0.0
  2017                 JUNCTION            369.20      2.65       0.0
  2020                 JUNCTION            371.42      3.94       0.0
  2021                 JUNCTION            382.40      2.60       0.0
  2022                 JUNCTION            374.72      0.98       0.0
  2023                 JUNCTION            372.78      4.72       0.0
  2024                 JUNCTION            374.41      2.84       0.0
  2025                 JUNCTION            374.36      1.38       0.0
  2026                 JUNCTION            373.52      2.44       0.0
  2028                 JUNCTION            377.35      2.76       0.0
  2029                 JUNCTION            375.34      3.61       0.0
  2030                 JUNCTION            380.59      2.62       0.0
  2032                 JUNCTION            378.34      4.70       0.0
  2034                 JUNCTION            382.99      2.14       0.0
  2036                 JUNCTION            382.92      2.45       0.0
  2037                 JUNCTION            382.81      2.75       0.0
  2038                 JUNCTION            382.82      2.44       0.0
  2039                 JUNCTION            382.79      2.07       0.0
  2040                 JUNCTION            382.51      2.34       0.0
  2041                 JUNCTION            382.86      2.00       0.0
  2042                 JUNCTION            383.09      1.95       0.0
  2044                 JUNCTION            384.38      0.85       0.0
  2045                 JUNCTION            380.12      2.87       0.0
  2046                 JUNCTION            375.10      6.22       0.0
  2047                 JUNCTION            377.82      2.51       0.0
  2049                 JUNCTION            373.42      2.78       0.0
  2060                 JUNCTION            377.07      2.18       0.0
  2062                 JUNCTION            367.87      3.79       0.0
  2067                 JUNCTION            370.40      1.83       0.0
  2068                 JUNCTION            377.52      2.33       0.0
  2069                 JUNCTION            379.08      2.64       0.0
  2070                 JUNCTION            379.87      2.50       0.0
  2072                 JUNCTION            383.93      1.82       0.0
  2073                 JUNCTION            381.32      1.92       0.0
  2075                 JUNCTION            371.83      3.13       0.0
  2076                 JUNCTION            371.56      3.35       0.0
  2077                 JUNCTION            383.85      1.39       0.0
  2079                 JUNCTION            372.97      2.36       0.0
  2080                 JUNCTION            380.52      2.14       0.0
  2081                 JUNCTION            372.08      4.92       0.0
  2082                 JUNCTION            372.08      2.40       0.0
  2086                 JUNCTION            381.11      2.20       0.0
  2087                 JUNCTION            381.66      2.20       0.0
  2089                 JUNCTION            375.95      2.73       0.0
  2090                 JUNCTION            372.94      2.42       0.0
  3068                 JUNCTION            388.51      2.44       0.0
  3070                 JUNCTION            386.74      4.51       0.0
  3092                 JUNCTION            388.07      1.34       0.0
  3093                 JUNCTION            388.17      1.69       0.0
  3150                 JUNCTION            389.31      2.95       0.0
  4001                 JUNCTION            379.97      6.04       0.0
  4002                 JUNCTION            382.97      2.75       0.0
  4003                 JUNCTION            384.36      0.78       0.0
  4004                 JUNCTION            383.30      1.80       0.0
  4006                 JUNCTION            382.62      2.30       0.0
  4007                 JUNCTION            382.86      2.46       0.0
  4008                 JUNCTION            383.12      2.26       0.0
  4011                 JUNCTION            380.76      5.33       0.0
  4013                 JUNCTION            382.55      2.74       0.0
  4014                 JUNCTION            382.87      4.63       0.0
  4015                 JUNCTION            383.18      4.32       0.0
  4016                 JUNCTION            383.47      2.56       0.0
  4017                 JUNCTION            383.81      1.71       0.0
  4018                 JUNCTION            381.57      3.89       0.0
  4020                 JUNCTION            381.97      3.83       0.0
  4021                 JUNCTION            382.38      6.36       0.0
  4022                 JUNCTION            385.76      3.74       0.0
  4024                 JUNCTION            384.69      2.87       0.0
  4025                 JUNCTION            387.18      1.49       0.0
  4026                 JUNCTION            384.84      3.56       0.0
  4027                 JUNCTION            385.04      3.04       0.0
  4028                 JUNCTION            385.36      2.33       0.0
  4029                 JUNCTION            385.37      2.59       0.0
  4030                 JUNCTION            385.67      2.27       0.0
  4031                 JUNCTION            386.09      1.84       0.0
  4032                 JUNCTION            386.38      1.88       0.0
  4033                 JUNCTION            386.72      2.02       0.0
  4034                 JUNCTION            385.61      1.75       0.0
  4035                 JUNCTION            385.52      1.96       0.0
  4036                 JUNCTION            385.98      1.63       0.0
  4037                 JUNCTION            383.45      2.37       0.0
  4038                 JUNCTION            384.77      2.43       0.0
  4039                 JUNCTION            384.11      4.04       0.0
  4040                 JUNCTION            385.25      2.56       0.0
  4041                 JUNCTION            386.06      1.68       0.0
  4042                 JUNCTION            385.55      2.32       0.0
  4044                 JUNCTION            386.61      2.36       0.0
  4046                 JUNCTION            384.12      2.68       0.0
  4047                 JUNCTION            385.20      2.00       0.0
  4048                 JUNCTION            385.54      2.11       0.0
  4049                 JUNCTION            385.54      1.75       0.0
  4050                 JUNCTION            384.66      2.73       0.0
  4051                 JUNCTION            385.11      2.88       0.0
  4052                 JUNCTION            385.30      2.58       0.0
  4053                 JUNCTION            385.31      2.53       0.0
  4056                 JUNCTION            385.48      2.27       0.0
  4057                 JUNCTION            385.94      1.87       0.0
  4058                 JUNCTION            386.07      2.00       0.0
  4059                 JUNCTION            386.86      3.08       0.0
  4060                 JUNCTION            384.48      3.46       0.0
  4061                 JUNCTION            385.85      1.86       0.0
  4062                 JUNCTION            385.75      1.75       0.0
  4063                 JUNCTION            384.99      2.44       0.0
  4064                 JUNCTION            385.43      2.20       0.0
  4065                 JUNCTION            385.55      2.53       0.0
  4066                 JUNCTION            385.63      2.64       0.0
  4067                 JUNCTION            385.85      2.65       0.0
  4068                 JUNCTION            385.90      2.80       0.0
  4070                 JUNCTION            386.45      2.21       0.0
  4071                 JUNCTION            386.88      2.00       0.0
  4073                 JUNCTION            384.71      2.86       0.0
  4074                 JUNCTION            386.02      1.77       0.0
  4075                 JUNCTION            386.63      1.71       0.0
  4076                 JUNCTION            386.27      1.94       0.0
  4077                 JUNCTION            386.00      2.58       0.0
  4078                 JUNCTION            386.26      2.43       0.0
  4079                 JUNCTION            386.35      2.55       0.0
  4083                 JUNCTION            387.22      2.58       0.0
  4085                 JUNCTION            386.15      1.40       0.0
  4087                 JUNCTION            385.67      1.68       0.0
  4089                 JUNCTION            386.14      1.56       0.0
  4090                 JUNCTION            386.38      1.78       0.0
  4091                 JUNCTION            386.56      2.08       0.0
  4092                 JUNCTION            387.60      2.10       0.0
  4093                 JUNCTION            390.01      1.95       0.0
  4094                 JUNCTION            389.54      2.69       0.0
  4095                 JUNCTION            386.11      1.40       0.0
  4096                 JUNCTION            390.54      1.40       0.0
  4098                 JUNCTION            380.87      4.92       0.0
  4099                 JUNCTION            383.10      5.25       0.0
  4100                 JUNCTION            383.37      4.15       0.0
  4101                 JUNCTION            386.35      1.29       0.0
  4102                 JUNCTION            385.93      3.57       0.0
  4103                 JUNCTION            391.19      2.31       0.0
  4105                 JUNCTION            384.24      1.06       0.0
  4106                 JUNCTION            383.02      2.68       0.0
  4107                 JUNCTION            382.86      2.76       0.0
  4108                 JUNCTION            382.86      2.80       0.0
  4109                 JUNCTION            383.20      2.36       0.0
  4110                 JUNCTION            383.09      2.34       0.0
  4113                 JUNCTION            384.31      2.68       0.0
  4114                 JUNCTION            384.38      2.59       0.0
  4118                 JUNCTION            384.51      1.50       0.0
  4126                 JUNCTION            391.13      2.37       0.0
  4128                 JUNCTION            384.12      3.63       0.0
  4131                 JUNCTION            388.96      2.29       0.0
  4132                 JUNCTION            387.99      3.51       0.0
  4133                 JUNCTION            384.46      3.00       0.0
  4135                 JUNCTION            390.28      3.22       0.0
  4138                 JUNCTION            384.21      3.29       0.0
  4139                 JUNCTION            383.50      4.00       0.0
  4141                 JUNCTION            384.67      2.83       0.0
  4144                 JUNCTION            381.84      5.66       0.0
  4045                 JUNCTION            386.65      3.20       0.0
  4147                 JUNCTION            382.97      2.29       0.0
  4148                 JUNCTION            386.16      3.34       0.0
  4150                 JUNCTION            382.46      2.78       0.0
  4152                 JUNCTION            383.08      4.42       0.0
  4153                 JUNCTION            386.40      5.10       0.0
  4155                 JUNCTION            385.99      3.76       0.0
  4156                 JUNCTION            385.85      3.65       0.0
  4159                 JUNCTION            385.69      5.80       0.0
  4160                 JUNCTION            384.17      3.33       0.0
  4162                 JUNCTION            384.49      3.51       0.0
  4166                 JUNCTION            386.56      5.19       0.0
  4167                 JUNCTION            386.70      5.30       0.0
  4169                 JUNCTION            388.94      2.81       0.0
  4171                 JUNCTION            386.79      3.71       0.0
  4145                 JUNCTION            386.71      2.48       0.0
  4202                 JUNCTION            383.57      3.92       0.0
  5025                 JUNCTION            392.33      4.70       0.0
  5046                 JUNCTION            390.76      2.77       0.0
  5051                 JUNCTION            390.90      1.74       0.0
  6024                 JUNCTION            377.86      1.46       0.0
  6025                 JUNCTION            377.89      1.75       0.0
  6026                 JUNCTION            377.92      1.87       0.0
  6032                 JUNCTION            378.53      2.17       0.0
  6038                 JUNCTION            379.93      0.94       0.0
  6040                 JUNCTION            378.84      1.38       0.0
  6054                 JUNCTION            378.15      1.00       0.0
  6055                 JUNCTION            381.14      6.36       0.0
  6059                 JUNCTION            382.60      1.92       0.0
  6061                 JUNCTION            384.75      2.14       0.0
  6063                 JUNCTION            385.41      1.09       0.0
  6065                 JUNCTION            385.85      1.74       0.0
  6067                 JUNCTION            386.43      0.96       0.0
  6072                 JUNCTION            380.38      7.62       0.0
  6075                 JUNCTION            381.05      5.45       0.0
  6078                 JUNCTION            383.34      2.57       0.0
  8012                 JUNCTION            384.86      3.27       0.0
  8013                 JUNCTION            383.97      3.72       0.0
  8014                 JUNCTION            383.72      3.70       0.0
  8015                 JUNCTION            383.48      3.80       0.0
  8016                 JUNCTION            382.67      3.50       0.0
  8018                 JUNCTION            383.68      3.64       0.0
  8020                 JUNCTION            383.59      1.42       0.0
  8021                 JUNCTION            383.10      2.17       0.0
  8024                 JUNCTION            383.71      1.03       0.0
  8025                 JUNCTION            383.44      1.77       0.0
  8026                 JUNCTION            383.31      2.20       0.0
  8027                 JUNCTION            384.20      0.76       0.0
  8028                 JUNCTION            384.02      1.28       0.0
  8029                 JUNCTION            388.61      1.78       0.0
  8031                 JUNCTION            385.82      1.22       0.0
  8032                 JUNCTION            385.66      2.34       0.0
  8033                 JUNCTION            385.46      2.07       0.0
  8035                 JUNCTION            386.33      1.84       0.0
  8036                 JUNCTION            385.50      2.14       0.0
  8037                 JUNCTION            386.24      2.01       0.0
  8038                 JUNCTION            385.90      2.12       0.0
  8039                 JUNCTION            385.69      1.96       0.0
  8040                 JUNCTION            385.15      2.55       0.0
  8041                 JUNCTION            384.89      2.71       0.0
  8042                 JUNCTION            386.69      0.65       0.0
  8044                 JUNCTION            385.36      2.24       0.0
  8045                 JUNCTION            386.34      1.34       0.0
  8046                 JUNCTION            386.01      1.60       0.0
  8047                 JUNCTION            385.27      2.11       0.0
  8048                 JUNCTION            385.93      1.58       0.0
  8049                 JUNCTION            385.34      3.16       0.0
  8051                 JUNCTION            388.25      2.16       0.0
  8053                 JUNCTION            388.23      2.41       0.0
  8055                 JUNCTION            385.56      5.94       0.0
  8057                 JUNCTION            384.81      5.19       0.0
  8059                 JUNCTION            385.17      6.08       0.0
  8064                 JUNCTION            386.25      4.00       0.0
  8067                 JUNCTION            384.91      5.09       0.0
  8068                 JUNCTION            385.39      5.36       0.0
  10002                JUNCTION            385.63      1.84       0.0
  10009                JUNCTION            385.81      1.96       0.0
  10010                JUNCTION            385.91      1.97       0.0
  10011                JUNCTION            386.30      1.88       0.0
  10012                JUNCTION            386.73      1.62       0.0
  10017                JUNCTION            387.46      2.13       0.0
  10018                JUNCTION            390.37      1.86       0.0
  10019                JUNCTION            390.90      2.34       0.0
  10020                JUNCTION            391.67      1.14       0.0
  10021                JUNCTION            391.75      2.75       0.0
  10022                JUNCTION            391.44      1.45       0.0
  10029                JUNCTION            392.03      2.47       0.0
  10033                JUNCTION            390.40      2.85       0.0
  10034                JUNCTION            386.07      1.93       0.0
  10044                JUNCTION            394.59      4.41       0.0
  10052                JUNCTION            391.17      2.33       0.0
  3315                 JUNCTION            388.79      1.38       0.0
  2001                 JUNCTION            354.88      6.63       0.0
  2002                 JUNCTION            360.88      5.28       0.0
  2010                 JUNCTION            369.79      0.94       0.0
  2011                 JUNCTION            367.73      3.20       0.0
  2013                 JUNCTION            368.14      3.43       0.0
  2019                 JUNCTION            381.37      2.52       0.0
  2027                 JUNCTION            374.25      2.55       0.0
  2033                 JUNCTION            382.19      2.44       0.0
  2035                 JUNCTION            379.40      6.45       0.0
  2048                 JUNCTION            370.39      6.42       0.0
  2050                 JUNCTION            369.77      2.71       0.0
  2054                 JUNCTION            382.97      2.22       0.0
  2058                 JUNCTION            369.08      3.92       0.0
  2059                 JUNCTION            376.25      2.72       0.0
  2066                 JUNCTION            367.86      1.13       0.0
  2071                 JUNCTION            382.82      2.91       0.0
  2074                 JUNCTION            373.59      1.28       0.0
  2078                 JUNCTION            372.78      2.63       0.0
  2085                 JUNCTION            380.69      2.22       0.0
  2088                 JUNCTION            370.26      3.18       0.0
  3017                 JUNCTION            387.67      2.05       0.0
  3035                 JUNCTION            387.88      1.88       0.0
  4005                 JUNCTION            382.48      3.43       0.0
  4009                 JUNCTION            383.40      2.18       0.0
  4012                 JUNCTION            382.24      2.89       0.0
  4023                 JUNCTION            384.16      3.58       0.0
  4043                 JUNCTION            386.45      1.89       0.0
  4069                 JUNCTION            386.19      2.27       0.0
  4072                 JUNCTION            386.97      2.77       0.0
  4081                 JUNCTION            389.10      2.48       0.0
  4082                 JUNCTION            389.07      2.84       0.0
  4084                 JUNCTION            387.93      2.28       0.0
  4086                 JUNCTION            385.01      2.27       0.0
  4088                 JUNCTION            385.82      1.87       0.0
  4097                 JUNCTION            390.18      2.12       0.0
  4104                 JUNCTION            384.09      1.28       0.0
  4111                 JUNCTION            383.34      2.20       0.0
  4112                 JUNCTION            384.21      2.45       0.0
  4116                 JUNCTION            382.89      2.79       0.0
  4117                 JUNCTION            380.57      5.58       0.0
  4120                 JUNCTION            390.02      2.41       0.0
  4127                 JUNCTION            390.78      2.72       0.0
  4134                 JUNCTION            390.66      2.84       0.0
  4136                 JUNCTION            389.86      3.65       0.0
  4137                 JUNCTION            384.58      2.92       0.0
  4140                 JUNCTION            384.12      3.38       0.0
  4146                 JUNCTION            386.76      2.60       0.0
  4149                 JUNCTION            385.52      3.98       0.0
  4154                 JUNCTION            385.94      5.56       0.0
  4157                 JUNCTION            384.93      3.57       0.0
  4158                 JUNCTION            385.27      6.23       0.0
  4161                 JUNCTION            384.40      3.10       0.0
  4165                 JUNCTION            386.43      3.57       0.0
  4204                 JUNCTION            386.54      3.00       0.0
  4168                 JUNCTION            388.42      2.36       0.0
  4170                 JUNCTION            386.40      3.60       0.0
  5084                 JUNCTION            390.77      2.81       0.0
  6002                 JUNCTION            380.72      2.63       0.0
  6023                 JUNCTION            378.33      2.85       0.0
  6031                 JUNCTION            379.78      1.85       0.0
  6033                 JUNCTION            378.53      1.58       0.0
  6039                 JUNCTION            378.67      2.06       0.0
  6056                 JUNCTION            381.42      3.90       0.0
  6057                 JUNCTION            382.32      5.38       0.0
  6060                 JUNCTION            384.41      1.78       0.0
  6062                 JUNCTION            385.17      2.86       0.0
  6064                 JUNCTION            385.67      3.13       0.0
  6066                 JUNCTION            386.09      2.98       0.0
  6068                 JUNCTION            386.54      3.02       0.0
  6069                 JUNCTION            383.33      3.52       0.0
  6070                 JUNCTION            383.29      2.03       0.0
  6071                 JUNCTION            382.57      2.67       0.0
  6076                 JUNCTION            380.67      5.33       0.0
  6077                 JUNCTION            383.05      1.31       0.0
  8017                 JUNCTION            382.80      3.42       0.0
  8034                 JUNCTION            385.17      2.79       0.0
  8043                 JUNCTION            386.06      1.79       0.0
  8050                 JUNCTION            386.37      1.31       0.0
  8052                 JUNCTION            387.54      3.08       0.0
  8054                 JUNCTION            384.05      0.91       0.0
  8056                 JUNCTION            384.37      4.63       0.0
  8058                 JUNCTION            384.88      5.12       0.0
  8061                 JUNCTION            383.57      5.43       0.0
  8063                 JUNCTION            386.02      3.73       0.0
  8066                 JUNCTION            382.91      2.49       0.0
  10003                JUNCTION            385.77      1.65       0.0
  10004                JUNCTION            385.75      1.76       0.0
  10005                JUNCTION            385.74      1.88       0.0
  10006                JUNCTION            384.94      2.61       0.0
  10007                JUNCTION            385.00      2.67       0.0
  10014                JUNCTION            387.30      1.89       0.0
  10015                JUNCTION            390.30      1.55       0.0
  10035                JUNCTION            392.79      5.71       0.0
  10036                JUNCTION            393.34      6.66       0.0
  10037                JUNCTION            393.85      6.15       0.0
  10038                JUNCTION            394.20      4.80       0.0
  10041                JUNCTION            390.82      2.18       0.0
  10053                JUNCTION            390.26      2.74       0.0
  4901                 JUNCTION            382.38      3.42       0.0
  2902                 JUNCTION            379.49      6.36       0.0
  2903                 JUNCTION            368.41      4.59       0.0
  2301                 OUTFALL             354.71      1.65       0.0
  10008                STORAGE             385.69      1.67       0.0
  3314                 STORAGE             388.94      1.67       0.0
  2901                 STORAGE             365.38      1.67       0.0
  4045s                STORAGE             389.50      1.00       0.0
  4145s                STORAGE             390.00      0.50       0.0
  3035s                STORAGE             390.50      0.50       0.0
  4070s                STORAGE             389.50      0.50       0.0
  
  
  ************
  Link Summary
  ************
  Name             From Node        To Node          Type            Length    %Slope Roughness
  ---------------------------------------------------------------------------------------------
  3315-3035        3315             3035             CONDUIT          191.5    0.3811    0.0350
  750mm            3314             3315             CONDUIT           12.0   -0.5565    0.0210
  600mm            3314             3315             CONDUIT           12.0   -0.5565    0.0210
  1001510053       10015            10053            CONDUIT           34.6    0.1097    0.0120
  10018-4097       10018            4097             CONDUIT           35.2    0.5483    0.0120
  1001910018       10019            10018            CONDUIT           86.9    0.5903    0.0120
  1002010019       10020            10019            CONDUIT           79.1    0.9693    0.0120
  10021-5046       10021            5046             CONDUIT           94.7    0.5672    0.0120
  1002210019       10022            10019            CONDUIT           53.8    0.9564    0.0120
  1002910020       10029            10020            CONDUIT           64.4    0.4996    0.0120
  1003310015       10033            10015            CONDUIT           19.6    0.5012    0.0120
  10035-5025       10035            5025             CONDUIT           77.4    0.5464    0.0120
  1003610035       10036            10035            CONDUIT          110.1    0.4995    0.0120
  1003710036       10037            10036            CONDUIT          101.1    0.5007    0.0120
  1003810037       10038            10037            CONDUIT           71.3    0.4990    0.0120
  1004110053       10041            10053            CONDUIT           22.1    0.4974    0.0120
  1004410038       10044            10038            CONDUIT           76.8    0.5002    0.0120
  1005210041       10052            10041            CONDUIT           68.8    0.4998    0.0120
  10053-4097       10053            4097             CONDUIT           55.2    0.1523    0.0120
  2002-2001        2002             2001             CONDUIT           55.4    7.9950    0.0120
  2004-2030        2004             2030             CONDUIT           82.7    0.3349    0.0120
  2005-2002        2005             2002             CONDUIT           18.3   16.6866    0.0150
  2006-2005        2006             2005             CONDUIT           80.0    0.6197    0.0150
  2007-2006        2007             2006             CONDUIT          198.3    0.5240    0.0150
  2008-2007        2008             2007             CONDUIT           97.1    0.2978    0.0150
  2009-2008        2009             2008             CONDUIT           98.5    0.2974    0.0150
  2010-2009        2010             2009             CONDUIT           16.5    1.0667    0.0120
  2011-2009        2011             2009             CONDUIT           91.9    0.2983    0.0150
  2012-2058        2012             2058             CONDUIT           12.7    8.7089    0.0120
  2013-2011        2013             2011             CONDUIT          108.6    0.3719    0.0150
  2014-2013        2014             2013             CONDUIT           92.6   -0.0108    0.0150
  2016-2015        2016             2015             CONDUIT           90.0    0.3256    0.0150
  2017-2016        2017             2016             CONDUIT           98.5    0.4297    0.0150
  2019-2030        2019             2030             CONDUIT           92.0    0.8534    0.0120
  2020-2062        2020             2062             CONDUIT           79.7    4.4250    0.0120
  2021-2033        2021             2033             CONDUIT           86.7    0.2412    0.0120
  2022-2074        2022             2074             CONDUIT           29.2    3.8429    0.0210
  2023-2012        2023             2012             CONDUIT          122.7    2.1201    0.0120
  2024-2013        2024             2013             CONDUIT          141.3    3.7473    0.0120
  2025-2014        2025             2014             CONDUIT          143.4    3.6578    0.0120
  2026-2048        2026             2048             CONDUIT           96.4    2.3912    0.0210
  2027-2017        2027             2017             CONDUIT          115.2    3.0457    0.0120
  2030-2047        2030             2047             CONDUIT           75.1    3.7251    0.0120
  2032-2028        2032             2028             CONDUIT          160.6    0.6127    0.0120
  2033-2019        2033             2019             CONDUIT           82.5    0.9863    0.0120
  2034-2036        2034             2036             CONDUIT           69.5    0.0590    0.0120
  2035-2032        2035             2032             CONDUIT          166.3    0.5953    0.0120
  2036-2037        2036             2037             CONDUIT           90.4    0.1161    0.0120
  2037-2071        2037             2071             CONDUIT           50.2   -0.0219    0.0120
  2038-2039        2038             2039             CONDUIT           92.3    0.0423    0.0120
  2039-2040        2039             2040             CONDUIT          106.3    0.1928    0.0120
  2040-2021        2040             2021             CONDUIT           87.4    0.1007    0.0120
  2041-2040        2041             2040             CONDUIT          102.8    0.2548    0.0120
  2042-2041        2042             2041             CONDUIT           85.5    0.2222    0.0120
  2045-2046        2045             2046             CONDUIT           42.3   11.9351    0.0120
  2046-2049        2046             2049             CONDUIT           90.9    1.8061    0.0120
  2047-2027        2047             2027             CONDUIT          109.8    3.2345    0.0120
  2049-2023        2049             2023             CONDUIT           30.0    2.1235    0.0120
  2050-2017        2050             2017             CONDUIT          103.2    0.5156    0.0140
  2054-2040        2054             2040             CONDUIT           88.5    0.4418    0.0120
  2058-2011        2058             2011             CONDUIT           15.6    5.9271    0.0120
  2060-2059        2060             2059             CONDUIT           97.2    0.8690    0.0120
  2062-2002        2062             2002             CONDUIT           91.7    7.6397    0.0120
  2066-2006        2066             2006             CONDUIT           19.1    7.0366    0.0120
  2067-2010        2067             2010             CONDUIT           35.6    1.6868    0.0120
  2068-2060        2068             2060             CONDUIT           98.5    0.4520    0.0120
  2069-2068        2069             2068             CONDUIT           97.2    1.5942    0.0120
  2070-2069        2070             2069             CONDUIT           87.7    0.8764    0.0120
  2071-2038        2071             2038             CONDUIT           45.3    0.0022    0.0120
  2072-2071        2072             2071             CONDUIT           40.6    0.7874    0.0120
  2073-2025        2073             2025             CONDUIT          146.3    4.7635    0.0120
  2074-2067        2074             2067             CONDUIT           54.7    5.7425    0.0120
  2075-2076        2075             2076             CONDUIT           56.7    0.3701    0.0120
  2076-2066        2076             2066             CONDUIT          113.0    3.2581    0.0120
  2077-2037        2077             2037             CONDUIT           64.7    1.0006    0.0120
  2078-2020        2078             2020             CONDUIT           11.3    7.7667    0.0120
  2079-2078        2079             2078             CONDUIT           41.5    0.4535    0.0120
  2080-2024        2080             2024             CONDUIT          137.5    4.4452    0.0120
  2081-2075        2081             2075             CONDUIT           34.7    0.3722    0.0120
  2082-2050        2082             2050             CONDUIT           57.0    3.9973    0.0140
  2085-2026        2085             2026             CONDUIT          133.0    5.2645    0.0210
  2086-2085        2086             2085             CONDUIT           35.8    1.0524    0.0120
  2087-2086        2087             2086             CONDUIT           28.8    1.9064    0.0120
  2088-2050        2088             2050             CONDUIT           95.2    0.5094    0.0140
  2089-2090        2089             2090             CONDUIT           60.5    4.8154    0.0120
  2090-2088        2090             2088             CONDUIT           62.8    4.1775    0.0120
  750mm~Conc       3017             3070             CONDUIT          113.1    0.8258    0.0120
  600mm~CMP        3017             3070             CONDUIT          113.1    0.8258    0.0210
  3035-3017        3035             3017             CONDUIT           18.6    1.1428    0.0120
  3068-4168        3068             4168             CONDUIT           24.9    0.3809    0.0120
  3070-4033        3070             4033             CONDUIT           86.5    0.0196    0.0120
  3092-3035        3092             3035             CONDUIT          110.6    0.1772    0.0120
  3093-3092        3093             3092             CONDUIT           81.8    0.1247    0.0120
  3150-3068        3150             3068             CONDUIT          124.3    0.6491    0.0120
  4002-4144        4002             4144             CONDUIT           54.9    2.0913    0.0120
  4003-4007        4003             4007             CONDUIT          170.7    0.8425    0.0120
  4004-4008        4004             4008             CONDUIT          170.5    0.0370    0.0120
  4005-4117        4005             4117             CONDUIT            8.4   19.4910    0.0120
  4006-4150        4006             4150             CONDUIT           87.5    0.2034    0.0120
  4007-4006        4007             4006             CONDUIT          109.0    0.2744    0.0120
  4008-4147        4008             4147             CONDUIT          101.3    0.1776    0.0120
  4009-4008        4009             4008             CONDUIT           96.9    0.2911    0.0120
  4011-4117        4011             4117             CONDUIT          129.4    0.1476    0.0120
  4012-4098        4012             4098             CONDUIT          108.3    0.8218    0.0120
  4013-4012        4013             4012             CONDUIT           98.1    0.3230    0.0120
  4014-4013        4014             4013             CONDUIT           99.0    0.3293    0.0120
  4015-4014        4015             4014             CONDUIT           94.9    0.3287    0.0120
  4016-4015        4016             4015             CONDUIT           96.3    0.3291    0.0120
  4017-4165        4017             4202             CONDUIT           37.6    0.6734    0.0120
  4018-4098        4018             4098             CONDUIT          155.7    0.4015    0.0120
  4020-4018        4020             4018             CONDUIT          159.8    0.2609    0.0120
  4022-4023        4022             4023             CONDUIT           62.5    1.0001    0.0120
  4023-4100        4023             4100             CONDUIT          202.6    0.3811    0.0120
  4025-4026        4025             4026             CONDUIT           63.4    2.0414    0.0140
  4026-4024        4026             4024             CONDUIT          102.0    0.1491    0.0120
  4027-4026        4027             4026             CONDUIT           95.0    0.2158    0.0120
  4028-4027        4028             4027             CONDUIT          100.5    0.2984    0.0120
  4029-4028        4029             4028             CONDUIT           96.6   -0.0145    0.0120
  4030-4029        4030             4029             CONDUIT          100.4    0.2738    0.0120
  4031-4030        4031             4030             CONDUIT           97.3    0.4037    0.0120
  4032-4031        4032             4031             CONDUIT           98.4    0.2857    0.0120
  4033-4032        4033             4032             CONDUIT           98.7    0.3060    0.0120
  4034-4099        4034             4099             CONDUIT           81.7    2.6852    0.0120
  4035-4100        4035             4100             CONDUIT           56.1    3.1424    0.0120
  4036-4023        4036             4023             CONDUIT           62.5    1.3441    0.0120
  4038-4037        4038             4037             CONDUIT          104.3    1.0106    0.0120
  4039-4100        4039             4100             CONDUIT          135.1    0.4375    0.0120
  4040-4039        4040             4039             CONDUIT           81.2    0.8693    0.0120
  4041-4042        4041             4042             CONDUIT           94.2    0.1741    0.0120
  4042-4027        4042             4027             CONDUIT          127.4    0.2920    0.0120
  4043-4155        4043             4155             CONDUIT           54.5    0.5556    0.0120
  4044-4043        4044             4043             CONDUIT           58.4   -0.0394    0.0120
  4046-4037        4046             4037             CONDUIT          175.1    0.3792    0.0120
  4047-4046        4047             4046             CONDUIT          105.2    0.7557    0.0120
  4048-4047        4048             4047             CONDUIT           96.6    0.3438    0.0120
  4049-4050        4049             4050             CONDUIT          106.6    0.4146    0.0120
  4050-4133        4050             4133             CONDUIT           63.3    0.3175    0.0120
  4051-4050        4051             4050             CONDUIT           91.2    0.0570    0.0120
  4052-4051        4052             4051             CONDUIT           98.1    0.1428    0.0120
  4053-4052        4053             4052             CONDUIT           98.0    0.0143    0.0120
  4056-4053        4056             4053             CONDUIT          101.2    0.1650    0.0120
  4057-4056        4057             4056             CONDUIT           48.7    0.8365    0.0120
  4058-4057        4058             4057             CONDUIT           65.7    0.2009    0.0120
  4059-4145        4059             4145             CONDUIT          147.0    0.1014    0.0120
  4060-4046        4060             4046             CONDUIT          166.0    0.2198    0.0120
  4061-4062        4061             4062             CONDUIT           31.7    0.3219    0.0120
  4062-4063        4062             4063             CONDUIT          105.8    0.3231    0.0120
  4063-4050        4063             4050             CONDUIT          172.2    0.1899    0.0120
  4064-4063        4064             4063             CONDUIT           93.5    0.3680    0.0120
  4065-4064        4065             4064             CONDUIT          105.1    0.1037    0.0120
  4066-4065        4066             4065             CONDUIT           85.4    0.1277    0.0120
  4067-4066        4067             4066             CONDUIT           98.4    0.2448    0.0120
  4068-4067        4068             4067             CONDUIT          116.7    0.0463    0.0120
  4069-4068        4069             4068             CONDUIT           90.6    0.3070    0.0120
  4070-4069        4070             4069             CONDUIT           97.3    0.2722    0.0120
  4071-4070        4071             4070             CONDUIT          108.3    0.1145    0.0120
  4072-4059        4072             4059             CONDUIT           83.4    0.1391    0.0120
  4073-4060        4073             4060             CONDUIT          168.0    0.1488    0.0120
  4074-4073        4074             4073             CONDUIT          104.9    0.8446    0.0120
  4075-4076        4075             4076             CONDUIT           43.9    0.8283    0.0120
  4076-4077        4076             4077             CONDUIT          105.9    0.0538    0.0120
  4077-4063        4077             4063             CONDUIT          170.4    0.5641    0.0120
  4078-4077        4078             4077             CONDUIT           92.7    0.2222    0.0120
  4079-4078        4079             4078             CONDUIT          104.3    0.1975    0.0120
  4081-4082        4081             4082             CONDUIT           47.4    0.0675    0.0120
  4082-4070        4082             4070             CONDUIT          136.5    1.6951    0.0120
  4083-4072        4083             4072             CONDUIT           73.3    0.3342    0.0120
  4084-4083        4084             4083             CONDUIT          123.4    0.5723    0.0120
  4085-4088        4085             4088             CONDUIT           73.7    0.4248    0.0120
  4086-4073        4086             4073             CONDUIT          176.7    0.1687    0.0210
  4087-4086        4087             4086             CONDUIT           61.2    0.4219    0.0120
  4088-4087        4088             4087             CONDUIT           47.9    0.3237    0.0120
  4089-4088        4089             4088             CONDUIT           98.1    0.3098    0.0120
  4090-4077        4090             4077             CONDUIT          168.3    0.2044    0.0120
  4091-4090        4091             4090             CONDUIT           88.0    0.2229    0.0120
  4092-4091        4092             4091             CONDUIT          102.1    1.0255    0.0120
  4093-4092        4093             4092             CONDUIT          100.4    2.3843    0.0120
  4094-4081        4094             4081             CONDUIT          114.5    0.3850    0.0120
  4095-4088        4095             4088             CONDUIT           58.3    0.4783    0.0140
  4096-4120        4096             4120             CONDUIT           35.6    1.3281    0.0120
  4097-4120        4097             4120             CONDUIT           39.8    0.4226    0.0120
  4098-4011        4098             4011             CONDUIT           48.3    0.1803    0.0120
  4099-4021        4099             4021             CONDUIT          145.8    0.4658    0.0120
  4100-4099        4100             4099             CONDUIT          150.7    0.1726    0.0120
  4101-4089        4101             4089             CONDUIT           43.2    0.4348    0.0140
  4102-4156        4102             4156             CONDUIT           50.4    0.1427    0.0120
  4103-4127        4103             4127             CONDUIT           25.9    1.0017    0.0120
  4104-4106        4104             4106             CONDUIT           88.4    1.2080    0.0120
  4105-4104        4105             4104             CONDUIT           14.5    1.2068    0.0120
  4106-4116        4106             4116             CONDUIT           10.8    1.2101    0.0120
  4107-4108        4107             4108             CONDUIT           96.2   -0.0509    0.0120
  4108-2038        4108             2038             CONDUIT          183.2    0.0180    0.0120
  4109-4152        4109             4152             CONDUIT           33.2    0.3730    0.0140
  4110-2054        4110             2054             CONDUIT           82.7    0.1500    0.0120
  4111-4110        4111             4110             CONDUIT           24.4    1.0308    0.0120
  4112-4111        4112             4111             CONDUIT           84.8    1.0305    0.0120
  4113-4112        4113             4112             CONDUIT           97.4    0.0390    0.0120
  4114-4113        4114             4113             CONDUIT           96.2    0.1060    0.0120
  4116-4107        4116             4107             CONDUIT           86.6   -0.0023    0.0120
  4117-4001        4117             4001             CONDUIT          185.4    0.3220    0.0120
  4118-4138        4118             4138             CONDUIT           50.4    0.5997    0.0120
  4126-4127        4126             4127             CONDUIT           27.4    0.9996    0.0120
  4127-4134        4127             4134             CONDUIT           12.2    1.0013    0.0120
  4128-4017        4128             4017             CONDUIT           31.4    0.9993    0.0120
  4131-4132        4131             4132             CONDUIT           89.5    1.0005    0.0120
  4132-4170        4132             4170             CONDUIT          159.0    0.9999    0.0120
  4133-4039        4133             4039             CONDUIT          107.2    0.3164    0.0120
  4134-4135        4134             4135             CONDUIT           38.1    0.9997    0.0120
  4135-4136        4135             4136             CONDUIT           42.6    1.0011    0.0120
  4136-4081        4136             4081             CONDUIT           15.7    0.9873    0.0120
  4137-4118        4137             4118             CONDUIT           11.9    0.6040    0.0120
  4138-4139        4138             4139             CONDUIT           43.3    1.2945    0.0120
  4139-4009        4139             4009             CONDUIT           91.5    0.1081    0.0120
  4140-4106        4140             4106             CONDUIT            4.6   19.3296    0.0120
  4141-4140        4141             4140             CONDUIT           55.0    0.9999    0.0120
  4144-4001        4144             4001             CONDUIT           34.5    3.4339    0.0120
  4045-4167        4045             4204             CONDUIT           54.5    0.1980    0.0120
  4145-4146        4145             4146             CONDUIT           84.7   -0.0579    0.0120
  4146-4045        4146             4045             CONDUIT           81.3    0.1365    0.0120
  4147-4007        4147             4007             CONDUIT           96.4    0.1079    0.0120
  4148-4149        4148             4149             CONDUIT           64.1    1.0004    0.0120
  4150-4005        4150             4005             CONDUIT          102.0   -0.0402    0.0120
  4152-4108        4152             4108             CONDUIT           56.0    0.3729    0.0120
  4153-4154        4153             4154             CONDUIT           77.3    0.5993    0.0120
  4154-4159        4154             4159             CONDUIT           41.0    0.6007    0.0120
  4155-4102        4155             4102             CONDUIT           47.3    0.1417    0.0120
  4156-4042        4156             4042             CONDUIT           52.3    0.1434    0.0120
  4157-4137        4157             4137             CONDUIT           58.6    0.5994    0.0120
  4158-4157        4158             4157             CONDUIT          113.5    0.3005    0.0120
  4159-4158        4159             4158             CONDUIT           70.3    0.6002    0.0120
  4160-4016        4160             4016             CONDUIT           44.5    0.9996    0.0120
  4161-4160        4161             4160             CONDUIT           15.7    1.0038    0.0120
  4162-4161        4162             4161             CONDUIT            8.3    0.9894    0.0120
  4165-4032        4165             4032             CONDUIT           10.2    0.0879    0.0120
  4165-4014        4202             4014             CONDUIT           70.8    0.6752    0.0120
  4165-4166        4166             4165             CONDUIT          161.4    0.0836    0.0120
  4167-4166        4167             4166             CONDUIT          166.1    0.0837    0.0120
  4167-4032        4204             4032             CONDUIT          123.7    0.0986    0.0120
  4168-4084        4168             4084             CONDUIT           92.3    0.5242    0.0120
  4169-4132        4169             4132             CONDUIT           88.3    0.9997    0.0120
  4170-4030        4170             4030             CONDUIT           10.4    1.0029    0.0120
  4171-4044        4171             4044             CONDUIT           10.5    1.4706    0.0120
  5025-5051        5025             5051             CONDUIT          201.5    0.7231    0.0120
  5046-3150        5046             3150             CONDUIT          154.9    0.9381    0.0120
  5051-5084        5051             5084             CONDUIT          110.3    0.1142    0.0120
  5084-5046        5084             5046             CONDUIT           55.2   -0.0543    0.0120
  6002-6040        6002             6040             CONDUIT           47.5    3.8689    0.0120
  6023-6024        6023             6024             CONDUIT           84.9    0.5546    0.0120
  6024-6025        6024             6025             CONDUIT           98.9   -0.0263    0.0120
  6025-6026        6025             6026             CONDUIT           87.0   -0.0414    0.0120
  6026-2028        6026             2028             CONDUIT          123.9    0.4586    0.0120
  6031-6039        6031             6039             CONDUIT          100.2    1.1089    0.0120
  6032-6033        6032             6033             CONDUIT           99.4   -0.0221    0.0120
  6033-6023        6033             6023             CONDUIT           47.8    0.4118    0.0120
  6038-6031        6038             6031             CONDUIT           55.5    0.0829    0.0120
  6039-6032        6039             6032             CONDUIT            9.3    0.3982    0.0120
  6040-6039        6040             6039             CONDUIT           12.9    1.2752    0.0120
  6054-6024        6054             6024             CONDUIT           43.1    0.2574    0.0120
  6056-6002        6056             6002             CONDUIT           19.0    0.2633    0.0120
  6057-6056        6057             6056             CONDUIT          121.8    0.2848    0.0120
  6059-6071        6059             6071             CONDUIT           15.8    0.1580    0.0120
  6060-6070        6060             6070             CONDUIT           70.4    1.5920    0.0120
  6061-6060        6061             6060             CONDUIT           19.8    1.6793    0.0120
  6062-6061        6062             6061             CONDUIT           42.2    0.9707    0.0120
  6063-6062        6063             6062             CONDUIT           76.0    0.2816    0.0120
  6064-6062        6064             6062             CONDUIT           49.0    0.9161    0.0120
  6065-6064        6065             6064             CONDUIT           61.7    0.2642    0.0120
  6066-6064        6066             6064             CONDUIT           50.3    0.8005    0.0120
[...]
  
  
  *************************
  Conduit Surcharge Summary
  *************************
  
  ----------------------------------------------------------------------------
                                                           Hours        Hours 
                         --------- Hours Full --------   Above Full   Capacity
  Conduit                Both Ends  Upstream  Dnstream   Normal Flow   Limited
  ----------------------------------------------------------------------------
  3315-3035                   2.16     17.33      2.16      3.83         2.16
  600mm                       1.85      1.85      5.85      0.01         0.01
  10021-5046                  0.01      0.06      0.01      0.13         0.01
  10035-5025                  0.39      0.39      0.56      0.01         0.01
  1003610035                  0.18      0.18      0.39      0.01         0.01
  1003710036                  0.01      0.01      0.18      0.01         0.01
  2010-2009                   0.01      0.01      0.01      0.02         0.01
  2011-2009                   0.01      0.01      0.01      0.21         0.01
  2014-2013                   0.01      0.01      0.01      1.30         0.01
  2016-2015                   0.07      0.07      0.15      0.01         0.01
  2017-2016                   0.01      0.01      0.07      0.01         0.01
  2021-2033                   0.01      0.01      0.01      0.15         0.01
  2032-2028                   0.01      0.01      0.01      0.19         0.01
  2034-2036                   0.19      0.19      0.24      0.01         0.01
  2035-2032                   0.01      0.01      0.01      0.20         0.01
  2036-2037                   0.12      0.12      0.25      0.01         0.01
  2037-2071                   0.23      0.23      0.26      0.28         0.01
  2038-2039                   0.01      0.01      0.01      0.39         0.01
  2040-2021                   0.01      0.01      0.01      0.42         0.01
  2041-2040                   0.01      0.01      0.21      0.01         0.01
  2050-2017                   0.01      0.01      0.18      0.01         0.01
  2058-2011                   0.01      0.01      0.39      0.01         0.01
  2071-2038                   0.21      0.23      0.21      1.28         0.20
  2075-2076                   0.32      0.71      0.32      0.80         0.32
  2077-2037                   0.01      0.01      0.23      0.01         0.01
  2081-2075                   0.58      0.65      0.58      0.77         0.58
  2082-2050                   0.01      0.01      0.12      0.01         0.01
  750mm~Conc                  0.01      0.01      0.53      0.01         0.01
  600mm~CMP                   0.22      0.22      0.64      0.01         0.01
  3068-4168                   0.01      0.01      0.05      0.01         0.01
  3070-4033                   0.40      0.40      0.41      0.57         0.28
  3092-3035                   0.25      0.82      0.25      1.05         0.25
  3093-3092                   0.77      0.77      0.79      0.74         0.72
  4003-4007                   0.01      0.01      0.35      0.01         0.01
  4004-4008                   0.25      0.43      0.25      0.78         0.25
  4005-4117                   0.01      0.01      0.76      0.01         0.01
  4011-4117                   0.60      0.72      0.60      0.85         0.60
  4012-4098                   0.61      0.62      0.92      0.04         0.01
  4013-4012                   0.50      0.64      0.64      0.19         0.02
  4014-4013                   0.53      0.54      0.66      0.19         0.17
  4015-4014                   0.35      0.35      0.54      0.04         0.04
  4016-4015                   0.13      0.13      0.35      0.01         0.01
  4017-4165                   0.08      0.08      0.23      0.01         0.01
  4018-4098                   0.62      0.62      0.70      0.01         0.01
  4020-4018                   0.62      0.63      0.62      0.64         0.59
  4022-4023                   0.24      0.28      0.46      0.09         0.01
  4023-4100                   0.46      0.46      0.61      0.01         0.01
  4025-4026                   0.01      0.01      0.31      0.01         0.01
  4026-4024                   0.31      0.31      0.32      0.08         0.02
  4027-4026                   0.38      0.40      0.38      0.59         0.35
  4028-4027                   0.34      0.34      0.38      0.01         0.01
  4029-4028                   0.33      0.33      0.46      1.92         0.01
  4030-4029                   0.63      0.68      0.63      0.74         0.63
  4031-4030                   0.56      0.56      0.66      0.07         0.07
  4032-4031                   0.55      0.56      0.56      0.67         0.54
  4033-4032                   0.41      0.41      0.53      0.01         0.01
  4034-4099                   0.01      0.01      0.95      0.01         0.01
  4035-4100                   0.03      0.03      1.14      0.01         0.01
  4036-4023                   0.01      0.01      0.46      0.01         0.01
  4038-4037                   0.01      0.01      0.59      0.01         0.01
  4039-4100                   0.39      0.39      0.56      0.01         0.01
  4040-4039                   0.34      0.34      0.62      0.01         0.01
  4041-4042                   0.31      0.31      0.38      0.01         0.01
  4042-4027                   0.22      0.22      0.40      0.01         0.01
  4043-4155                   0.03      0.03      0.22      0.01         0.01
  4044-4043                   0.01      0.01      0.23      0.46         0.01
  4046-4037                   0.36      0.36      0.48      0.08         0.01
  4047-4046                   0.21      0.28      0.57      0.11         0.02
  4048-4047                   0.03      0.03      0.26      0.01         0.01
  4049-4050                   0.24      0.24      0.48      0.01         0.01
  4050-4133                   0.23      0.23      0.28      0.01         0.01
  4051-4050                   0.28      0.28      0.30      0.15         0.01
  4052-4051                   0.29      0.29      0.32      0.20         0.01
  4053-4052                   0.28      0.44      0.28      0.75         0.28
  4056-4053                   0.55      0.55      0.59      0.24         0.24
  4057-4056                   0.22      0.22      0.51      0.01         0.01
  4058-4057                   0.10      0.10      0.22      0.01         0.01
  4059-4145                   0.60      0.62      0.62      0.55         0.49
  4060-4046                   0.31      0.36      0.38      0.11         0.01
  4061-4062                   0.14      0.14      0.18      0.01         0.01
  4062-4063                   0.18      0.18      0.46      0.01         0.01
  4063-4050                   0.07      0.07      0.22      0.01         0.01
  4064-4063                   0.01      0.01      0.14      0.01         0.01
  4065-4064                   0.01      0.01      0.01      0.20         0.01
  4066-4065                   0.01      0.01      0.01      0.19         0.01
  4068-4067                   0.01      0.01      0.01      0.41         0.01
  4072-4059                   0.60      0.60      0.62      0.01         0.01
  4073-4060                   0.36      0.43      0.36      0.57         0.36
  4074-4073                   0.01      0.01      0.48      0.01         0.01
  4075-4076                   0.01      0.01      0.28      0.01         0.01
  4076-4077                   0.01      0.01      0.01      0.23         0.01
  4077-4063                   0.01      0.01      0.22      0.01         0.01
  4081-4082                   0.01      0.01      0.01      0.34         0.01
  4083-4072                   0.53      0.53      0.58      0.01         0.01
  4084-4083                   0.27      0.27      0.54      0.01         0.01
  4085-4088                   0.42      0.42      0.58      0.01         0.01
  4086-4073                   0.46      0.49      0.46      0.49         0.39
  4087-4086                   0.48      0.54      0.54      0.19         0.12
  4088-4087                   0.51      0.52      0.55      0.19         0.17
  4089-4088                   0.47      0.49      0.56      0.27         0.24
  4095-4088                   0.44      0.44      0.58      0.01         0.01
  4096-4120                   0.22      0.22      0.60      0.11         0.11
  4098-4011                   0.71      0.72      0.71      0.78         0.71
  4099-4021                   0.49      0.49      0.59      0.01         0.01
  4100-4099                   0.48      0.56      0.48      0.72         0.48
  4101-4089                   0.39      0.39      0.52      0.01         0.01
  4102-4156                   0.25      0.25      0.28      0.01         0.01
  4104-4106                   0.40      0.40      1.07      0.01         0.01
  4105-4104                   0.38      0.38      0.44      0.01         0.01
  4106-4116                   0.91      0.91      1.24      0.01         0.01
  4107-4108                   0.81      0.81      1.02      0.94         0.01
  4108-2038                   0.46      0.92      0.46      2.14         0.46
  4109-4152                   0.63      0.63      0.78      0.01         0.01
  4113-4112                   0.01      0.09      0.01      0.47         0.01
  4114-4113                   0.10      0.19      0.10      0.32         0.10
  4116-4107                   1.16      1.16      1.24      2.48         0.01
  4117-4001                   0.46      0.60      0.46      0.76         0.46
  4128-4017                   0.04      0.04      0.10      0.01         0.01
  4132-4170                   0.01      0.01      0.55      0.01         0.01
  4133-4039                   0.28      0.28      0.39      0.01         0.01
  4139-4009                   0.01      0.01      0.01      0.14         0.01
  4140-4106                   0.43      0.43      0.91      0.01         0.01
  4141-4140                   0.33      0.34      0.43      0.18         0.16
  4144-4001                   0.01      0.01      0.89      0.01         0.01
  4045-4167                   0.53      0.53      0.55      0.02         0.03
  4145-4146                   0.53      0.53      0.62      0.79         0.01
  4146-4045                   0.52      0.53      0.53      0.34         0.26
  4147-4007                   0.01      0.01      0.01      0.16         0.01
  4148-4149                   0.02      0.02      0.39      0.01         0.01
  4150-4005                   0.01      0.01      0.01      0.41         0.01
  4152-4108                   0.78      0.78      1.46      0.01         0.01
  4155-4102                   0.22      0.22      0.25      0.01         0.01
  4156-4042                   0.28      0.28      0.32      0.01         0.01
  4160-4016                   0.06      0.06      0.13      0.08         0.03
  4161-4160                   0.08      0.14      0.08      0.16         0.08
  4162-4161                   0.14      0.14      0.14      0.16         0.14
  4165-4032                   1.23      1.23      1.27      0.02         0.04
  4165-4014                   0.23      0.23      0.54      0.01         0.01
  4165-4166                   0.82      0.82      1.23      0.02         0.01
  4167-4166                   0.70      0.70      0.82      0.01         0.01
  4167-4032                   0.53      0.55      0.53      0.72         0.52
  4168-4084                   0.01      0.01      0.26      0.01         0.01
  4170-4030                   0.55      0.55      0.66      0.01         0.01
  4171-4044                   0.03      0.03      0.17      0.01         0.01
  5025-5051                   0.66      0.68      0.73      0.69         0.65
  6002-6040                   0.01      0.01      0.41      0.01         0.01
  6023-6024                   0.08      0.08      0.48      0.01         0.01
  6024-6025                   0.01      0.01      0.01      0.32         0.01
  6025-6026                   0.01      0.01      0.01      0.23         0.01
  6026-2028                   0.01      0.01      0.58      0.01         0.01
  6031-6039                   0.01      0.01      0.58      0.01         0.01
  6032-6033                   0.05      0.05      0.33      1.08         0.01
  6033-6023                   0.05      0.05      0.08      0.04         0.02
  6038-6031                   0.01      0.09      0.01      0.21         0.01
  6039-6032                   0.12      0.12      0.14      0.01         0.01
  6040-6039                   0.46      0.46      0.58      0.33         0.32
  6054-6024                   0.02      0.02      0.10      0.01         0.01
  6056-6002                   0.01      0.67      0.01      0.92         0.01
  6057-6056                   0.01      0.84      0.01      0.90         0.01
  6059-6071                   0.76      0.76      0.77      0.47         0.51
  6060-6070                   0.16      0.16      0.51      0.01         0.01
  6061-6060                   0.15      0.15      0.18      0.01         0.01
  6062-6061                   0.10      0.10      0.14      0.01         0.01
  6063-6062                   0.07      0.07      0.11      0.01         0.01
  6064-6062                   0.04      0.04      0.08      0.01         0.01
  6065-6064                   0.06      0.16      0.06      0.26         0.06
  6066-6064                   0.01      0.01      0.06      0.01         0.01
  6068-6069                   0.01      0.01      0.45      0.01         0.01
  6069-6070                   0.50      0.50      0.50      0.20         0.22
  6070-6059                   0.51      0.51      0.68      0.07         0.07
  6071-6057                   0.81      0.83      0.83      0.83         0.80
  6075-6076                   0.01      0.01      0.01      0.01         0.01
  6076-6072                   0.01      0.01      0.76      0.01         0.01
  6077-6071                   0.68      0.68      0.86      0.01         0.01
  6078-6077                   0.58      0.58      0.67      0.01         0.01
  8013-8014                   0.01      0.03      0.01      0.07         0.01
  8014-8061                   0.01      0.01      0.01      0.01         0.01
  8015-8017                   0.01      0.04      0.01      0.08         0.01
  8016-4117                   0.01      0.01      0.89      0.01         0.01
  8018-4011                   0.01      0.01      0.95      0.03         0.01
  8020-8021                   0.57      0.59      0.76      0.30         0.27
  8021-8066                   0.51      0.67      0.61      0.24         0.02
  8024-8025                   0.45      0.45      0.54      0.01         0.01
  8025-8026                   0.60      0.73      0.61      0.19         0.01
  8027-8054                   0.77      0.77      0.80      0.19         0.17
  8028-4037                   0.54      0.73      0.57      0.23         0.04
  8031-8032                   0.43      0.43      0.49      0.01         0.01
  8032-8033                   0.49      0.49      0.58      0.01         0.01
  8033-8049                   0.55      0.57      0.55      0.60         0.55
  8034-4046                   0.17      0.17      0.58      0.01         0.01
  8035-8041                   0.01      0.01      1.39      0.01         0.01
  8036-8040                   0.61      0.84      0.61      1.13         0.61
  8037-8038                   0.53      0.53      0.82      0.01         0.01
  8038-8039                   0.45      0.70      0.45      0.85         0.45
  8039-8040                   0.29      0.29      0.49      0.01         0.01
  8040-8041                   0.47      0.48      0.52      0.19         0.16
  8041-4073                   0.53      0.54      0.56      0.29         0.23
  8042-8050                   0.44      0.44      0.51      0.01         0.01
  8043-8038                   0.63      0.63      0.96      0.18         0.18
  8044-8040                   0.68      0.68      1.03      0.31         0.31
  8045-8043                   0.49      0.49      0.63      0.01         0.01
  8046-8039                   0.35      0.35      0.55      0.01         0.01
  8047-8041                   0.64      0.64      1.56      0.01         0.01
  8048-8044                   0.51      0.51      0.68      0.27         0.27
  8049-8034                   0.22      0.55      0.22      0.64         0.22
  8050-8037                   0.51      0.52      0.51      0.25         0.19
  8054-8028                   0.76      0.79      0.76      0.84         0.49
  8055-8059                   0.21      0.21      0.29      0.01         0.01
  8056-8018                   0.04      0.44      0.04      0.49         0.04
  8057-8056                   0.40      0.41      0.44      0.41         0.38
  8058-8057                   0.38      0.38      0.41      0.01         0.01
  8059-8058                   0.29      0.29      0.38      0.01         0.01
  8061-8015                   0.02      0.02      0.03      0.01         0.01
  8063-8012                   0.01      0.44      0.01      0.52         0.01
  8064-8063                   0.44      0.46      0.44      0.52         0.44
  8066-4018                   0.60      0.60      0.77      0.01         0.01
  8067-8057                   0.38      0.38      0.41      0.15         0.16
  8068-8067                   0.28      0.28      0.38      0.06         0.06
  1001710014                  0.09      0.13      0.09      0.18         0.09
  1001410012                  0.09      0.10      0.14      0.09         0.07
  1001210011                  0.11      0.14      0.24      0.10         0.05
  1001110034                  0.01      0.01      0.20      0.01         0.01
  1003410010                  0.20      0.20      0.41      0.01         0.01
  1001010009                  0.42      0.42      0.44      0.12         0.08
  1000910005                  0.44      0.44      0.44      0.20         0.17
  1000510004                  0.41      0.41      0.44      0.81         0.01
  1000410003                  0.36      0.36      0.41      0.56         0.01
  1000310002                  0.33      0.36      0.33      0.59         0.33
  10002-4086                  0.24      0.24      0.48      0.01         0.01
  1000810007                  0.02      0.02      0.46      0.01         0.01
  1000710006                 26.90     26.90     26.90      0.01         0.01
  1000610005                  0.43      0.43      0.44      0.01         0.04
  4021-4901                   0.46      0.55      0.46      2.37         0.46
  4901-4020                   0.46      0.46      0.63      0.01         0.01
  4037-4901                   0.49      0.49      0.71      0.01         0.01
  8026-4901                   0.61      0.61      0.74      0.07         0.01
  2902-2035                   0.01      0.01      0.01      0.79         0.01
  6055-2902                   0.01      0.01      0.86      0.01         0.01
  4001-2902                   0.01      0.43      0.01      0.78         0.01
  2015-2903                   0.15      0.15      0.17      0.01         0.01
  2903-2014                   0.17      0.17      0.19      0.14         0.12
  2048-2903                   0.01      0.01      0.17      0.01         0.01
  8012-8013                   0.01      0.01      0.06      0.01         0.01
  4149-4024                   0.39      0.39      0.44      0.01         0.01
  4024-4023                   0.32      0.32      0.43      0.01         0.01
  2001-2301                   0.22      0.40      0.22      0.79         0.22
  2044-4105                   0.37      0.37      0.41      0.01         0.01
  4145s-4145                  0.01      0.01      0.41      0.01         0.01
  

  Analysis begun on:  Fri Nov 29 13:28:48 2019
  Analysis ended on:  Fri Nov 29 13:28:58 2019
  Total elapsed time: 00:00:10