
  EPA STORM WATER MANAGEMENT MODEL - VERSION 5.1 (Build 5.1.013)
  --------------------------------------------------------------

  WARNING 04: minimum elevation drop used for Conduit Sol7
  WARNING 04: minimum elevation drop used for Conduit Sol8
  WARNING 04: minimum elevation drop used for Conduit Sol9
  WARNING 04: minimum elevation drop used for Conduit Sol26
  WARNING 04: minimum elevation drop used for Conduit Sol29
  WARNING 04: minimum elevation drop used for Conduit Sol31
  WARNING 04: minimum elevation drop used for Conduit Sol40
  WARNING 04: minimum elevation drop used for Conduit Sol42
  WARNING 04: minimum elevation drop used for Conduit Sol43
  WARNING 04: minimum elevation drop used for Conduit Sol44
  WARNING 04: minimum elevation drop used for Conduit Sol46
  WARNING 04: minimum elevation drop used for Conduit Sol58
  WARNING 10: crest elevation raised to downstream invert for regulator Link Orifício
  WARNING 02: maximum depth increased for Node J4
  WARNING 02: maximum depth increased for Node J21
  WARNING 02: maximum depth increased for Node J22
  WARNING 02: maximum depth increased for Node J24
  WARNING 02: maximum depth increased for Node J26
  WARNING 02: maximum depth increased for Node J27
  WARNING 02: maximum depth increased for Node J28
  WARNING 02: maximum depth increased for Node SU1
  
  *********************************************************
  NOTE: The summary statistics displayed in this report are
  based on results found at every computational time step,  
  not just on results from each reporting time step.
  *********************************************************
  
  ****************
  Analysis Options
  ****************
  Flow Units ............... LPS
  Process Models:
    Rainfall/Runoff ........ YES
    RDII ................... NO
    Snowmelt ............... NO
    Groundwater ............ NO
    Flow Routing ........... YES
    Ponding Allowed ........ NO
    Water Quality .......... NO
  Infiltration Method ...... MODIFIED_GREEN_AMPT
  Flow Routing Method ...... DYNWAVE
  Surcharge Method ......... EXTRAN
  Starting Date ............ 01/06/2015 00:00:00
  Ending Date .............. 01/07/2015 00:00:00
  Antecedent Dry Days ...... 0.0
  Report Time Step ......... 00:15:00
  Wet Time Step ............ 00:05:00
  Dry Time Step ............ 01:00:00
  Routing Time Step ........ 30.00 sec
  Variable Time Step ....... YES
  Maximum Trials ........... 8
  Number of Threads ........ 1
  Head Tolerance ........... 0.001500 m
  
  
  **************************        Volume         Depth
  Runoff Quantity Continuity     hectare-m            mm
  **************************     ---------       -------
  Total Precipitation ......         0.014        42.000
  Evaporation Loss .........         0.000         0.000
  Infiltration Loss ........         0.009        27.668
  Surface Runoff ...........         0.005        14.351
  Final Storage ............         0.000         0.000
  Continuity Error (%) .....        -0.044
  
  
  **************************        Volume        Volume
  Flow Routing Continuity        hectare-m      10^6 ltr
  **************************     ---------     ---------
  Dry Weather Inflow .......         0.000         0.000
  Wet Weather Inflow .......         0.005         0.049
  Groundwater Inflow .......         0.000         0.000
  RDII Inflow ..............         0.000         0.000
  External Inflow ..........         0.000         0.000
  External Outflow .........         0.004         0.037
  Flooding Loss ............         0.000         0.000
  Evaporation Loss .........         0.000         0.000
  Exfiltration Loss ........         0.000         0.000
  Initial Stored Volume ....         1.200        11.999
  Final Stored Volume ......         1.201        12.011
  Continuity Error (%) .....         0.000
  
  
  ***************************
  Time-Step Critical Elements
  ***************************
  Link Sol33 (35.45%)
  Link Sol48 (15.10%)
  
  
  ********************************
  Highest Flow Instability Indexes
  ********************************
  All links are stable.
  
  
  *************************
  Routing Time Step Summary
  *************************
  Minimum Time Step           :     0.98 sec
  Average Time Step           :    25.89 sec
  Maximum Time Step           :    30.00 sec
  Percent in Steady State     :    -0.00
  Average Iterations per Step :     2.00
  Percent Not Converging      :     0.00
  
  
  ***************************
  Subcatchment Runoff Summary
  ***************************
  
  ------------------------------------------------------------------------------------------------------------------------------
                            Total      Total      Total      Total     Imperv       Perv      Total       Total     Peak  Runoff
                           Precip      Runon       Evap      Infil     Runoff     Runoff     Runoff      Runoff   Runoff   Coeff
  Subcatchment                 mm         mm         mm         mm         mm         mm         mm    10^6 ltr      LPS
  ------------------------------------------------------------------------------------------------------------------------------
  SB1                       42.00       0.00       0.00      42.00       0.00       0.00       0.00        0.00     0.00   0.000
  SB2                       42.00       0.00       0.00      42.00       0.00       0.00       0.00        0.00     0.00   0.000
  SB3                       42.00       0.00       0.00       0.00      42.06       0.00      42.06        0.00     0.19   1.002
  SB4                       42.00       0.00       0.00       0.00      42.04       0.00      42.04        0.00     0.07   1.001
  SB5                       42.00       0.00       0.00       0.00      42.06       0.00      42.06        0.01     0.24   1.001
  SB6                       42.00       0.00       0.00       0.00      42.04       0.00      42.04        0.00     0.07   1.001
  SB7                       42.00       0.00       0.00       0.00      42.04       0.00      42.04        0.00     0.03   1.001
  SB8                       42.00       0.00       0.00       0.00      42.03       0.00      42.03        0.00     0.01   1.001
  SB9                       42.00       0.00       0.00       0.00      42.05       0.00      42.05        0.01     0.36   1.001
  SB10                      42.00       0.00       0.00       0.00      42.07       0.00      42.07        0.00     0.11   1.002
  SB11                      42.00       0.00       0.00       0.00      42.06       0.00      42.06        0.00     0.07   1.001
  SB12                      42.00       0.00       0.00       0.00      42.06       0.00      42.06        0.00     0.11   1.001
  SB13                      42.00       0.00       0.00       0.00      42.06       0.00      42.06        0.00     0.14   1.001
  SB14                      42.00       0.00       0.00       0.00      42.03       0.00      42.03        0.00     0.02   1.001
  SB15                      42.00       0.00       0.00       0.00      42.07       0.00      42.07        0.00     0.18   1.002
  SB16                      42.00       0.00       0.00      42.00       0.00       0.00       0.00        0.00     0.00   0.000
  SB17                      42.00       0.00       0.00       0.00      42.04       0.00      42.04        0.01     0.35   1.001
  
  
  ******************
  Node Depth Summary
  ******************
  
  ---------------------------------------------------------------------------------
                                 Average  Maximum  Maximum  Time of Max    Reported
                                   Depth    Depth      HGL   Occurrence   Max Depth
  Node                 Type       Meters   Meters   Meters  days hr:min      Meters
  ---------------------------------------------------------------------------------
  J1                   JUNCTION     0.00     0.00    49.00     0  00:00        0.00
  J2                   JUNCTION     0.00     0.00    48.50     0  00:00        0.00
  J3                   JUNCTION     0.00     0.00    51.00     0  13:00        0.00
  J4                   JUNCTION     0.00     0.00    48.25     0  13:00        0.00
  J6                   JUNCTION     0.00     0.00    51.00     0  13:00        0.00
  J7                   JUNCTION     0.00     0.00    51.00     0  13:00        0.00
  J8                   JUNCTION     0.00     0.00    51.00     0  13:00        0.00
  J9                   JUNCTION     0.00     0.01    48.01     0  13:00        0.01
  J10                  JUNCTION     0.01     0.01    47.91     0  13:00        0.01
  J11                  JUNCTION     0.00     0.00    51.00     0  13:01        0.00
  J12                  JUNCTION     0.00     0.01    47.91     0  13:00        0.01
  J13                  JUNCTION     0.01     0.02    47.82     0  13:00        0.02
  J14                  JUNCTION     0.00     0.00    51.00     0  13:00        0.00
  J15                  JUNCTION     0.00     0.00    51.00     0  01:00        0.00
  J16                  JUNCTION     0.00     0.01    47.71     0  13:00        0.01
  J17                  JUNCTION     0.01     0.02    47.52     0  13:00        0.02
  J18                  JUNCTION     0.00     0.00    48.00     0  00:00        0.00
  J19                  JUNCTION     0.00     0.00    48.60     0  00:00        0.00
  J20                  JUNCTION     0.00     0.00    48.30     0  00:00        0.00
  J21                  JUNCTION     0.00     0.00    48.30     0  13:01        0.00
  J22                  JUNCTION     0.00     0.00    48.30     0  13:00        0.00
  J23                  JUNCTION     0.00     0.00    48.20     0  13:00        0.00
  J24                  JUNCTION     0.00     0.01    48.31     0  13:00        0.01
  J25                  JUNCTION     0.00     0.00    48.20     0  13:00        0.00
  J26                  JUNCTION     0.00     0.00    47.80     0  13:00        0.00
  J27                  JUNCTION     0.00     0.00    48.15     0  13:00        0.00
  J28                  JUNCTION     0.00     0.00    48.00     0  13:00        0.00
  J29                  JUNCTION     0.00     0.01    47.61     0  13:00        0.01
  J30                  JUNCTION     0.00     0.00    47.75     0  13:00        0.00
  J31                  JUNCTION     0.00     0.00    51.00     0  13:00        0.00
  J32                  JUNCTION     0.01     0.02    47.32     0  13:00        0.02
  ESup                 OUTFALL      0.01     0.02    47.22     0  13:00        0.02
  ESub                 OUTFALL      0.00     0.01    47.01     0  13:00        0.01
  SU1                  STORAGE     12.01    12.01    47.01     1  00:00       12.01
  
  
  *******************
  Node Inflow Summary
  *******************
  
  -------------------------------------------------------------------------------------------------
                                  Maximum  Maximum                  Lateral       Total        Flow
                                  Lateral    Total  Time of Max      Inflow      Inflow     Balance
                                   Inflow   Inflow   Occurrence      Volume      Volume       Error
  Node                 Type           LPS      LPS  days hr:min    10^6 ltr    10^6 ltr     Percent
  -------------------------------------------------------------------------------------------------
  J1                   JUNCTION      0.00     0.00     0  00:00           0           0       0.000 ltr
  J2                   JUNCTION      0.00     0.00     0  00:00           0           0       0.000 ltr
  J3                   JUNCTION      0.19     0.19     0  00:15     0.00471     0.00471      -0.019
  J4                   JUNCTION      0.00     0.16     0  13:00           0     0.00415      -0.000
  J6                   JUNCTION      0.07     0.07     0  12:25     0.00176     0.00176       0.046
  J7                   JUNCTION      0.03     0.03     0  12:20    0.000799    0.000799       0.020
  J8                   JUNCTION      0.01     0.01     0  12:15    0.000294    0.000294       0.339
  J9                   JUNCTION      0.36     0.36     0  13:00     0.00904     0.00904      -0.010
  J10                  JUNCTION      0.11     0.31     0  13:00     0.00282     0.00772      -0.002
  J11                  JUNCTION      0.07     0.07     0  00:15     0.00168     0.00168       8.907
  J12                  JUNCTION      0.11     0.16     0  13:00     0.00278     0.00432       0.005
  J13                  JUNCTION      0.14     0.62     0  13:00     0.00357      0.0156       0.003
  J14                  JUNCTION      0.02     0.02     0  12:15    0.000378    0.000378       0.122
  J15                  JUNCTION      0.18     0.18     0  01:00     0.00446     0.00446      -0.026
  J16                  JUNCTION      0.00     0.19     0  13:00           0     0.00484       0.015
  J17                  JUNCTION      0.35     1.07     0  13:00     0.00878      0.0269      -0.002
  J18                  JUNCTION      0.00     0.00     0  00:00           0           0       0.000 ltr
  J19                  JUNCTION      0.00     0.00     0  00:00           0           0       0.000 ltr
  J20                  JUNCTION      0.00     0.00     0  00:00           0           0       0.000 ltr
  J21                  JUNCTION      0.00     0.09     0  13:00           0     0.00237       0.032
  J22                  JUNCTION      0.00     0.09     0  13:00           0     0.00234       0.036
  J23                  JUNCTION      0.24     0.33     0  13:00     0.00605     0.00842      -0.110
  J24                  JUNCTION      0.00     0.05     0  13:00           0     0.00138       0.000
  J25                  JUNCTION      0.00     0.16     0  13:00           0     0.00415      -0.111
  J26                  JUNCTION      0.00     0.17     0  13:00           0     0.00434       0.008
  J27                  JUNCTION      0.00     0.13     0  13:00           0     0.00324       0.002
  J28                  JUNCTION      0.00     0.16     0  13:00           0     0.00404      -0.001
  J29                  JUNCTION      0.00     0.29     0  13:00           0     0.00727      -0.026
  J30                  JUNCTION      0.00     0.12     0  13:00           0     0.00294       0.041
  J31                  JUNCTION      0.07     0.07     0  12:25     0.00181     0.00181       0.047
  J32                  JUNCTION      0.00     1.16     0  13:00           0      0.0292       0.007
  ESup                 OUTFALL       0.00     1.16     0  13:00           0      0.0292       0.000
  ESub                 OUTFALL       0.00     0.29     0  13:00           0     0.00728       0.000
  SU1                  STORAGE       0.00     0.48     0  13:00           0          12       0.000
  
  
  **********************
  Node Surcharge Summary
  **********************
  
  No nodes were surcharged.
  
  
  *********************
  Node Flooding Summary
  *********************
  
  No nodes were flooded.
  
  
  **********************
  Storage Volume Summary
  **********************
  
  --------------------------------------------------------------------------------------------------
                         Average     Avg  Evap Exfil       Maximum     Max    Time of Max    Maximum
                          Volume    Pcnt  Pcnt  Pcnt        Volume    Pcnt     Occurrence    Outflow
  Storage Unit           1000 m3    Full  Loss  Loss       1000 m3    Full    days hr:min        LPS
  --------------------------------------------------------------------------------------------------
  SU1                     12.008      92     0     0        12.012      92       1  00:00       0.00
  
  
  ***********************
  Outfall Loading Summary
  ***********************
  
  -----------------------------------------------------------
                         Flow       Avg       Max       Total
                         Freq      Flow      Flow      Volume
  Outfall Node           Pcnt       LPS       LPS    10^6 ltr
  -----------------------------------------------------------
  ESup                  65.54      0.62      1.16       0.029
  ESub                  58.14      0.17      0.29       0.007
  -----------------------------------------------------------
  System                61.84      0.79      1.45       0.037
  
  
  ********************
  Link Flow Summary
  ********************
  
  -----------------------------------------------------------------------------
                                 Maximum  Time of Max   Maximum    Max/    Max/
                                  |Flow|   Occurrence   |Veloc|    Full    Full
  Link                 Type          LPS  days hr:min     m/sec    Flow   Depth
  -----------------------------------------------------------------------------
  Sol1                 CONDUIT      0.00     0  00:00      0.00    0.00    0.00
  Sol7                 CONDUIT      0.07     0  13:00      0.00    0.00    0.00
  Sol8                 CONDUIT      0.03     0  13:00      0.00    0.00    0.00
  Sol9                 CONDUIT      0.01     0  13:00      0.00    0.00    0.00
  Sol26                CONDUIT      0.05     0  13:01      0.00    0.00    0.00
  Sol27                CONDUIT      0.16     0  13:00      0.17    0.00    0.02
  Sol28                CONDUIT      0.62     0  13:00      0.28    0.00    0.04
  Sol29                CONDUIT      0.01     0  13:00      0.00    0.00    0.00
  Sol31                CONDUIT      0.18     0  01:00      0.00    0.00    0.00
  Sol32                CONDUIT      0.10     0  13:00      0.07    0.00    0.03
  Sol33                CONDUIT      1.07     0  13:00      0.46    0.00    0.04
  Sol35                CONDUIT      0.00     0  00:00      0.00    0.00    0.01
  Sol36                CONDUIT      0.31     0  13:00      0.22    0.00    0.03
  Sol37                CONDUIT      0.00     0  00:00      0.00    0.00    0.00
  Sol38                CONDUIT      0.00     0  00:00      0.00    0.00    0.00
  Sol39                CONDUIT      0.00     0  00:00      0.00    0.00    0.00
  Sol40                CONDUIT      0.07     0  13:00      0.00    0.00    0.00
  Sol42                CONDUIT      0.07     0  13:00      0.00    0.00    0.00
  Sol43                CONDUIT      0.03     0  00:01      0.04    0.02    0.03
  Sol44                CONDUIT      0.05     0  13:00      0.00    0.00    0.00
  Sol46                CONDUIT      0.03     0  00:01      0.04    0.02    0.03
  Sol47                CONDUIT      0.09     0  13:00      0.15    0.00    0.03
  Sol48                CONDUIT      0.16     0  13:00      0.29    0.01    0.02
  Sol51                CONDUIT      0.09     0  13:00      0.20    0.00    0.02
  Sol52                CONDUIT      0.06     0  13:00      0.00    0.00    0.02
  Sol53                CONDUIT      0.13     0  13:00      0.25    0.00    0.02
  Sol54                CONDUIT      0.16     0  13:00      0.28    0.00    0.03
  Sol55                CONDUIT      0.12     0  13:00      0.22    0.00    0.02
  Sol56                CONDUIT      0.12     0  13:00      0.18    0.00    0.04
  Sol57                CONDUIT      0.17     0  13:00      0.20    0.00    0.04
  Sol58                CONDUIT      0.07     0  13:00      0.00    0.00    0.00
  Sol59                CONDUIT      0.29     0  13:00      0.26    0.01    0.05
  Sol60                CONDUIT      1.16     0  13:00      0.59    0.00    0.03
  Sol61                CONDUIT      0.09     0  13:00      0.09    0.00    0.02
  Sol10                CONDUIT      0.20     0  13:00      0.19    0.00    0.02
  Sol62                CONDUIT      0.22     0  13:00      0.46    0.00    0.02
  Sol63                CONDUIT      0.11     0  13:00      0.00    0.00    0.02
  Orifício             ORIFICE      0.16     0  13:00                      0.10
  
  
  ***************************
  Flow Classification Summary
  ***************************
  
  -------------------------------------------------------------------------------------
                      Adjusted    ---------- Fraction of Time in Flow Class ---------- 
                       /Actual         Up    Down  Sub   Sup   Up    Down  Norm  Inlet 
  Conduit               Length    Dry  Dry   Dry   Crit  Crit  Crit  Crit  Ltd   Ctrl  
  -------------------------------------------------------------------------------------
  Sol1                    1.00   1.00  0.00  0.00  0.00  0.00  0.00  0.00  0.00  0.00
  Sol7                    4.52   0.00  0.00  0.00  0.00  0.00  0.00  1.00  0.00  0.00
  Sol8                    3.28   0.00  0.00  0.00  0.00  0.00  1.00  0.00  0.00  0.00
  Sol9                    4.42   0.00  0.00  0.00  0.00  0.00  0.00  1.00  0.00  0.00
  Sol26                   1.00   0.00  0.00  0.00  0.00  0.00  0.00  1.00  0.00  0.00
  Sol27                   4.99   0.00  0.00  0.00  1.00  0.00  0.00  0.00  1.00  0.00
  Sol28                   1.00   0.00  0.00  0.00  1.00  0.00  0.00  0.00  1.00  0.00
  Sol29                   6.68   0.00  0.00  0.00  0.00  0.00  1.00  0.00  0.00  0.00
  Sol31                   6.68   0.00  0.00  0.00  0.00  0.00  1.00  0.00  0.00  0.00
  Sol32                   1.80   0.00  0.10  0.00  0.90  0.00  0.00  0.00  1.00  0.00
  Sol33                   1.00   0.00  0.00  0.00  0.42  0.58  0.00  0.00  0.00  0.00
  Sol35                   2.78   0.27  0.73  0.00  0.00  0.00  0.00  0.00  0.00  0.00
  Sol36                   1.40   0.00  0.27  0.00  0.73  0.00  0.00  0.00  1.00  0.00
  Sol37                   1.00   1.00  0.00  0.00  0.00  0.00  0.00  0.00  0.00  0.00
  Sol38                   6.23   1.00  0.00  0.00  0.00  0.00  0.00  0.00  0.00  0.00
  Sol39                  12.36   1.00  0.00  0.00  0.00  0.00  0.00  0.00  0.00  0.00
  Sol40                   1.24   0.00  0.00  0.00  0.00  0.00  0.00  1.00  0.00  0.00
  Sol42                   1.20   0.00  0.00  0.00  0.00  0.00  0.00  1.00  0.00  0.00
  Sol43                   1.00   0.00  0.00  0.00  1.00  0.00  0.00  0.00  0.00  0.00
  Sol44                   3.22   0.00  0.00  0.00  0.00  0.00  0.00  1.00  0.00  0.00
  Sol46                   1.00   0.00  0.00  0.00  1.00  0.00  0.00  0.00  0.00  0.00
  Sol47                   3.14   0.00  0.00  0.00  1.00  0.00  0.00  0.00  0.99  0.00
  Sol48                   3.44   0.00  0.00  0.00  0.31  0.69  0.00  0.00  0.08  0.00
  Sol51                   1.55   0.00  0.01  0.00  0.49  0.50  0.00  0.00  0.16  0.00
  Sol52                   2.57   0.00  0.01  0.00  0.99  0.00  0.00  0.00  0.84  0.00
  Sol53                   2.75   0.00  0.00  0.00  0.38  0.62  0.00  0.00  0.99  0.00
  Sol54                   2.20   0.00  0.00  0.00  0.35  0.65  0.00  0.00  0.99  0.00
  Sol55                   1.00   0.00  0.02  0.00  0.42  0.56  0.00  0.00  0.92  0.00
  Sol56                   1.00   0.00  0.02  0.00  0.97  0.01  0.00  0.00  0.99  0.00
  Sol57                   1.60   0.00  0.00  0.00  0.99  0.00  0.00  0.00  0.99  0.00
  Sol58                   4.18   0.00  0.00  0.00  0.00  0.00  0.00  1.00  0.00  0.00
  Sol59                   1.00   0.00  0.00  0.00  1.00  0.00  0.00  0.00  0.00  0.00
  Sol60                   6.59   0.00  0.00  0.00  0.00  1.00  0.00  0.00  0.21  0.00
  Sol61                   1.00   0.00  0.09  0.00  0.90  0.00  0.00  0.00  1.00  0.00
  Sol10                   1.37   0.06  0.00  0.00  0.94  0.00  0.00  0.00  1.00  0.00
  Sol62                   3.69   0.02  0.00  0.00  0.00  0.00  0.00  0.98  0.00  0.00
  Sol63                   1.28   0.01  0.00  0.00  0.00  0.00  0.00  0.99  0.00  0.00
  
  
  *************************
  Conduit Surcharge Summary
  *************************
  
  No conduits were surcharged.
  

  Analysis begun on:  Fri Nov 29 13:32:35 2019
  Analysis ended on:  Fri Nov 29 13:32:35 2019
  Total elapsed time: < 1 sec