
  EPA STORM WATER MANAGEMENT MODEL - VERSION 5.1 (Build 5.1.013)
  --------------------------------------------------------------

  
  ERROR 211: invalid number -0.320000 at line 253 of [JUNC] section:
  GM-PPS010_LOADING_MH	-3.320000	-0.320000	0.000000	0.000000	0.000000

  
  ERROR 211: invalid number -0.890000 at line 262 of [JUNC] section:
  GM-PPS025_LOADING_MH	-3.890000	-0.890000	0.000000	0.000000	0.000000

  
  ERROR 211: invalid number -0.690000 at line 267 of [JUNC] section:
  GM-PPS087_LOADING_MH	-3.690000	-0.690000	0.000000	0.000000	0.000000

  
  ERROR 211: invalid number -0.600000 at line 268 of [JUNC] section:
  GM-PPS088_LOADING_MH	-3.600000	-0.600000	0.000000	0.000000	0.000000

  
  ERROR 211: invalid number -0.430000 at line 317 of [JUNC] section:
  RM-A01-07	-0.430000	-0.430000	0.000000	200.000000	0.000000

  
  ERROR 211: invalid number -0.420000 at line 331 of [JUNC] section:
  RM-A01-14	-0.420000	-0.420000	0.000000	200.000000	0.000000

  
  ERROR 211: invalid number -4.320000 at line 333 of [JUNC] section:
  RM-A01-15	-4.320000	-4.320000	0.000000	200.000000	0.000000

  
  ERROR 211: invalid number -0.300000 at line 341 of [JUNC] section:
  RM-A01-19	-0.300000	-0.300000	0.000000	200.000000	0.000000

  
  ERROR 211: invalid number -0.250000 at line 364 of [JUNC] section:
  RM-A03-04	-0.250000	-0.250000	0.000000	200.000000	0.000000

  
  ERROR 211: invalid number -0.800000 at line 378 of [JUNC] section:
  RM-A03-100	-0.800000	-0.800000	0.000000	200.000000	0.000000

  
  ERROR 211: invalid number -0.172000 at line 514 of [JUNC] section:
  RM-A03-93	-0.172000	-0.172000	0.000000	200.000000	0.000000

  
  ERROR 211: invalid number -1.000000 at line 523 of [JUNC] section:
  RM-A04-01	-1.000000	-1.000000	0.000000	200.000000	0.000000

  
  ERROR 211: invalid number -0.500000 at line 525 of [JUNC] section:
  RM-A04-02	-0.500000	-0.500000	0.000000	200.000000	0.000000

  
  ERROR 211: invalid number -0.150000 at line 527 of [JUNC] section:
  RM-A04-03	-0.150000	-0.150000	0.000000	200.000000	0.000000

  
  ERROR 211: invalid number -1.600000 at line 544 of [JUNC] section:
  RM-A06-01	-1.600000	-1.600000	0.000000	200.000000	0.000000

  
  ERROR 211: invalid number -1.570000 at line 546 of [JUNC] section:
  RM-A06-02	-1.570000	-1.570000	0.000000	200.000000	0.000000

  
  ERROR 211: invalid number -1.500000 at line 548 of [JUNC] section:
  RM-A06-03	-1.500000	-1.500000	0.000000	200.000000	0.000000

  
  ERROR 211: invalid number -0.250000 at line 550 of [JUNC] section:
  RM-A06-04	-0.250000	-0.250000	0.000000	200.000000	0.000000

  
  ERROR 211: invalid number -2.000000 at line 552 of [JUNC] section:
  RM-A07-01	-2.000000	-2.000000	0.000000	200.000000	0.000000

  
  ERROR 211: invalid number -1.850000 at line 554 of [JUNC] section:
  RM-A07-02	-1.850000	-1.850000	0.000000	200.000000	0.000000

  
  ERROR 211: invalid number -1.800000 at line 556 of [JUNC] section:
  RM-A07-03	-1.800000	-1.800000	0.000000	200.000000	0.000000

  
  ERROR 211: invalid number -1.000000 at line 558 of [JUNC] section:
  RM-A07-04	-1.000000	-1.000000	0.000000	200.000000	0.000000

  
  ERROR 211: invalid number -0.950000 at line 560 of [JUNC] section:
  RM-A07-05	-0.950000	-0.950000	0.000000	200.000000	0.000000

  
  ERROR 211: invalid number -0.900000 at line 562 of [JUNC] section:
  RM-A07-06	-0.900000	-0.900000	0.000000	200.000000	0.000000

  
  ERROR 211: invalid number -0.650000 at line 564 of [JUNC] section:
  RM-A07-07	-0.650000	-0.650000	0.000000	200.000000	0.000000

  
  ERROR 211: invalid number -0.100000 at line 575 of [JUNC] section:
  RM-A09-06	-0.100000	-0.100000	0.000000	200.000000	0.000000

  
  ERROR 211: invalid number -0.400000 at line 585 of [JUNC] section:
  RM-A10-01	-0.400000	-0.400000	0.000000	200.000000	0.000000

  
  ERROR 211: invalid number -0.250000 at line 587 of [JUNC] section:
  RM-A10-02	-0.250000	-0.250000	0.000000	200.000000	0.000000

  
  ERROR 211: invalid number -0.800000 at line 603 of [JUNC] section:
  RM-A100-01	-0.800000	-0.800000	0.000000	200.000000	0.000000

  
  ERROR 211: invalid number -0.700000 at line 709 of [JUNC] section:
  RM-A16-01	-0.700000	-0.700000	0.000000	200.000000	0.000000

  
  ERROR 211: invalid number -0.500000 at line 711 of [JUNC] section:
  RM-A16-02	-0.500000	-0.500000	0.000000	200.000000	0.000000

  
  ERROR 211: invalid number -1.100000 at line 887 of [JUNC] section:
  RM-A45-01	-1.100000	-1.100000	0.000000	200.000000	0.000000

  
  ERROR 211: invalid number -0.850000 at line 889 of [JUNC] section:
  RM-A45-02	-0.850000	-0.850000	0.000000	200.000000	0.000000

  
  ERROR 211: invalid number -1.650000 at line 1024 of [JUNC] section:
  RM-A64-01	-1.650000	-1.650000	0.000000	200.000000	0.000000

  
  ERROR 211: invalid number -1.500000 at line 1026 of [JUNC] section:
  RM-A64-03	-1.500000	-1.500000	0.000000	200.000000	0.000000

  
  ERROR 211: invalid number -0.500000 at line 1048 of [JUNC] section:
  RM-A67-01	-0.500000	-0.500000	0.000000	200.000000	0.000000

  
  ERROR 211: invalid number -0.480000 at line 1050 of [JUNC] section:
  RM-A67-02	-0.480000	-0.480000	0.000000	200.000000	0.000000

  
  ERROR 211: invalid number -0.450000 at line 1052 of [JUNC] section:
  RM-A67-03	-0.450000	-0.450000	0.000000	200.000000	0.000000

  
  ERROR 211: invalid number -0.430000 at line 1054 of [JUNC] section:
  RM-A67-04	-0.430000	-0.430000	0.000000	200.000000	0.000000

  
  ERROR 211: invalid number -0.400000 at line 1056 of [JUNC] section:
  RM-A67-05	-0.400000	-0.400000	0.000000	200.000000	0.000000

  
  ERROR 211: invalid number -0.350000 at line 1058 of [JUNC] section:
  RM-A67-06	-0.350000	-0.350000	0.000000	200.000000	0.000000

  
  ERROR 211: invalid number -0.300000 at line 1060 of [JUNC] section:
  RM-A67-07	-0.300000	-0.300000	0.000000	200.000000	0.000000

  
  ERROR 211: invalid number -0.500000 at line 1078 of [JUNC] section:
  RM-A68-01	-0.500000	-0.500000	0.000000	200.000000	0.000000

  
  ERROR 211: invalid number -3.500000 at line 1086 of [JUNC] section:
  RM-A70-01	-3.500000	-3.500000	0.000000	200.000000	0.000000

  
  ERROR 211: invalid number -3.400000 at line 1088 of [JUNC] section:
  RM-A70-02	-3.400000	-3.400000	0.000000	200.000000	0.000000

  
  ERROR 211: invalid number -2.800000 at line 1090 of [JUNC] section:
  RM-A70-03	-2.800000	-2.800000	0.000000	200.000000	0.000000

  
  ERROR 211: invalid number -2.150000 at line 1092 of [JUNC] section:
  RM-A70-04	-2.150000	-2.150000	0.000000	200.000000	0.000000

  
  ERROR 211: invalid number -2.000000 at line 1094 of [JUNC] section:
  RM-A70-05	-2.000000	-2.000000	0.000000	200.000000	0.000000

  
  ERROR 211: invalid number -1.800000 at line 1096 of [JUNC] section:
  RM-A70-06	-1.800000	-1.800000	0.000000	200.000000	0.000000

  
  ERROR 211: invalid number -1.000000 at line 1098 of [JUNC] section:
  RM-A70-07	-1.000000	-1.000000	0.000000	200.000000	0.000000

  
  ERROR 211: invalid number -0.700000 at line 1100 of [JUNC] section:
  RM-A70-08	-0.700000	-0.700000	0.000000	200.000000	0.000000

  
  ERROR 211: invalid number -0.050000 at line 1150 of [JUNC] section:
  RM-A70-33	-0.050000	-0.050000	0.000000	200.000000	0.000000

  
  ERROR 211: invalid number -2.000000 at line 1194 of [JUNC] section:
  RM-A70-55	-2.000000	-2.000000	0.000000	200.000000	0.000000

  
  ERROR 211: invalid number -1.500000 at line 1196 of [JUNC] section:
  RM-A70-56	-1.500000	-1.500000	0.000000	200.000000	0.000000

  
  ERROR 211: invalid number -3.130000 at line 1199 of [JUNC] section:
  RM-A71-01	-3.130000	-3.130000	0.000000	200.000000	0.000000

  
  ERROR 211: invalid number -2.750000 at line 1211 of [JUNC] section:
  RM-A72-01	-2.750000	-2.750000	0.000000	375.000000	0.000000

  
  ERROR 211: invalid number -0.850000 at line 1221 of [JUNC] section:
  RM-A78-03	-0.850000	-0.850000	0.000000	200.000000	0.000000

  
  ERROR 211: invalid number -0.280000 at line 1223 of [JUNC] section:
  RM-A78-04	-0.280000	-0.280000	0.000000	200.000000	0.000000

  
  ERROR 211: invalid number -2.000000 at line 1267 of [JUNC] section:
  RM-A82-01	-2.000000	-2.000000	0.000000	200.000000	0.000000

  
  ERROR 211: invalid number -1.900000 at line 1269 of [JUNC] section:
  RM-A82-02	-1.900000	-1.900000	0.000000	200.000000	0.000000

  
  ERROR 211: invalid number -1.750000 at line 1271 of [JUNC] section:
  RM-A82-03	-1.750000	-1.750000	0.000000	200.000000	0.000000

  
  ERROR 211: invalid number -0.710000 at line 1285 of [JUNC] section:
  RM-A88-01	-0.710000	-0.710000	0.000000	200.000000	0.000000

  
  ERROR 211: invalid number -0.650000 at line 1287 of [JUNC] section:
  RM-A88-03	-0.650000	-0.650000	0.000000	200.000000	0.000000

  
  ERROR 211: invalid number -0.600000 at line 1289 of [JUNC] section:
  RM-A88-04	-0.600000	-0.600000	0.000000	200.000000	0.000000

  
  ERROR 211: invalid number -0.500000 at line 1291 of [JUNC] section:
  RM-A88-05	-0.500000	-0.500000	0.000000	200.000000	0.000000

  
  ERROR 211: invalid number -0.480000 at line 1293 of [JUNC] section:
  RM-A88-06	-0.480000	-0.480000	0.000000	200.000000	0.000000

  
  ERROR 211: invalid number -0.440000 at line 1295 of [JUNC] section:
  RM-A88-07	-0.440000	-0.440000	0.000000	200.000000	0.000000

  
  ERROR 211: invalid number -0.350000 at line 1297 of [JUNC] section:
  RM-A88-08	-0.350000	-0.350000	0.000000	200.000000	0.000000

  
  ERROR 211: invalid number -1.090000 at line 1321 of [JUNC] section:
  RM-A92-01	-1.090000	-1.090000	0.000000	375.000000	0.000000

  
  ERROR 211: invalid number -0.300000 at line 1343 of [JUNC] section:
  RM-A96-01	-0.300000	-0.300000	0.000000	200.000000	0.000000

  
  ERROR 211: invalid number -0.250000 at line 1345 of [JUNC] section:
  RM-A96-02	-0.250000	-0.250000	0.000000	200.000000	0.000000

  
  ERROR 211: invalid number -0.200000 at line 1347 of [JUNC] section:
  RM-A96-03	-0.200000	-0.200000	0.000000	200.000000	0.000000

  
  ERROR 211: invalid number -0.440000 at line 1361 of [JUNC] section:
  RM-A97-01	-0.440000	-0.440000	0.000000	200.000000	0.000000

  
  ERROR 211: invalid number -2.900000 at line 1365 of [JUNC] section:
  RM-D01-01	-2.900000	-2.900000	0.000000	200.000000	0.000000

  
  ERROR 211: invalid number -2.850000 at line 1367 of [JUNC] section:
  RM-D01-02	-2.850000	-2.850000	0.000000	200.000000	0.000000

  
  ERROR 211: invalid number -2.800000 at line 1369 of [JUNC] section:
  RM-D01-03	-2.800000	-2.800000	0.000000	200.000000	0.000000

  
  ERROR 211: invalid number -2.550000 at line 1371 of [JUNC] section:
  RM-D01-04	-2.550000	-2.550000	0.000000	200.000000	0.000000

  
  ERROR 211: invalid number -1.800000 at line 1373 of [JUNC] section:
  RM-D01-05	-1.800000	-1.800000	0.000000	200.000000	0.000000

  
  ERROR 211: invalid number -1.650000 at line 1375 of [JUNC] section:
  RM-D01-06	-1.650000	-1.650000	0.000000	200.000000	0.000000

  
  ERROR 211: invalid number -1.000000 at line 1377 of [JUNC] section:
  RM-D01-07	-1.000000	-1.000000	0.000000	200.000000	0.000000

  
  ERROR 211: invalid number -0.500000 at line 1419 of [JUNC] section:
  RM-D07-01	-0.500000	-0.500000	0.000000	375.000000	0.000000

  
  ERROR 211: invalid number -1.400000 at line 1422 of [JUNC] section:
  RM-D08-02	-1.400000	-1.400000	0.000000	200.000000	0.000000

  
  ERROR 211: invalid number -1.270000 at line 1424 of [JUNC] section:
  RM-D08-03	-1.270000	-1.270000	0.000000	200.000000	0.000000

  
  ERROR 211: invalid number -1.250000 at line 1426 of [JUNC] section:
  RM-D08-04	-1.250000	-1.250000	0.000000	200.000000	0.000000

  
  ERROR 211: invalid number -1.200000 at line 1428 of [JUNC] section:
  RM-D08-05	-1.200000	-1.200000	0.000000	200.000000	0.000000

  
  ERROR 211: invalid number -1.000000 at line 1430 of [JUNC] section:
  RM-D08-06	-1.000000	-1.000000	0.000000	200.000000	0.000000

  
  ERROR 211: invalid number -0.950000 at line 1432 of [JUNC] section:
  RM-D08-07	-0.950000	-0.950000	0.000000	200.000000	0.000000

  
  ERROR 211: invalid number -0.900000 at line 1434 of [JUNC] section:
  RM-D08-08	-0.900000	-0.900000	0.000000	200.000000	0.000000

  
  ERROR 211: invalid number -0.700000 at line 1436 of [JUNC] section:
  RM-D08-09	-0.700000	-0.700000	0.000000	200.000000	0.000000

  
  ERROR 211: invalid number -0.650000 at line 1438 of [JUNC] section:
  RM-D08-10	-0.650000	-0.650000	0.000000	200.000000	0.000000

  
  ERROR 211: invalid number -2.170000 at line 1476 of [JUNC] section:
  RM-D16-01	-2.170000	-2.170000	0.000000	200.000000	0.000000

  
  ERROR 211: invalid number -2.150000 at line 1478 of [JUNC] section:
  RM-D16-02	-2.150000	-2.150000	0.000000	200.000000	0.000000

  
  ERROR 211: invalid number -2.100000 at line 1480 of [JUNC] section:
  RM-D16-03	-2.100000	-2.100000	0.000000	200.000000	0.000000

  
  ERROR 211: invalid number -2.000000 at line 1482 of [JUNC] section:
  RM-D16-04	-2.000000	-2.000000	0.000000	200.000000	0.000000

  
  ERROR 211: invalid number -2.880000 at line 1492 of [JUNC] section:
  RM-D20-01	-2.880000	-2.880000	0.000000	200.000000	0.000000

  
  ERROR 211: invalid number -2.500000 at line 1494 of [JUNC] section:
  RM-D20-02	-2.500000	-2.500000	0.000000	200.000000	0.000000

  
  ERROR 211: invalid number -3.450000 at line 1498 of [JUNC] section:
  RM-D22-01	-3.450000	-3.450000	0.000000	375.000000	0.000000

  
  ERROR 211: invalid number -3.500000 at line 1500 of [JUNC] section:
  RM-D23-01	-3.500000	-3.500000	0.000000	200.000000	0.000000

  
  ERROR 211: invalid number -2.000000 at line 1502 of [JUNC] section:
  RM-D23-02	-2.000000	-2.000000	0.000000	200.000000	0.000000

  
  ERROR 211: invalid number -1.000000 at line 1538 of [JUNC] section:
  RM-D33-01	-1.000000	-1.000000	0.000000	375.000000	0.000000

  
  Maximum error count exceeded.

  Analysis begun on:  Fri Nov 29 13:32:36 2019
  Analysis ended on:  Fri Nov 29 13:32:36 2019
  Total elapsed time: < 1 sec