
  EPA STORM WATER MANAGEMENT MODEL - VERSION 5.1 (Build 5.1.013)
  --------------------------------------------------------------

  WARNING 03: negative offset ignored for Link 12265
  WARNING 03: negative offset ignored for Link 12266
  WARNING 03: negative offset ignored for Link 13321
  WARNING 03: negative offset ignored for Link 13321_2
  WARNING 04: minimum elevation drop used for Conduit 13324
  WARNING 03: negative offset ignored for Link 13325
  WARNING 03: negative offset ignored for Link 13326
  WARNING 03: negative offset ignored for Link 13327
  WARNING 03: negative offset ignored for Link 13328
  WARNING 03: negative offset ignored for Link 13329
  WARNING 03: negative offset ignored for Link 13330
  WARNING 04: minimum elevation drop used for Conduit 13335
  WARNING 04: minimum elevation drop used for Conduit 13336
  WARNING 04: minimum elevation drop used for Conduit 13344
  WARNING 03: negative offset ignored for Link 13357
  WARNING 03: negative offset ignored for Link 13373
  WARNING 03: negative offset ignored for Link 13378
  WARNING 04: minimum elevation drop used for Conduit 13379
  WARNING 04: minimum elevation drop used for Conduit 13393
  WARNING 04: minimum elevation drop used for Conduit 13394
  WARNING 03: negative offset ignored for Link 13425
  WARNING 03: negative offset ignored for Link 13432
  WARNING 03: negative offset ignored for Link 13432
  WARNING 03: negative offset ignored for Link 13434
  WARNING 03: negative offset ignored for Link 13439
  WARNING 04: minimum elevation drop used for Conduit 13498
  WARNING 03: negative offset ignored for Link 13501
  WARNING 03: negative offset ignored for Link 13510
  WARNING 03: negative offset ignored for Link 13530
  WARNING 03: negative offset ignored for Link 13561
  WARNING 03: negative offset ignored for Link 13561
  WARNING 03: negative offset ignored for Link 13562
  WARNING 03: negative offset ignored for Link 13562
  WARNING 03: negative offset ignored for Link 13564
  WARNING 04: minimum elevation drop used for Conduit 13565
  WARNING 04: minimum elevation drop used for Conduit 13585
  WARNING 04: minimum elevation drop used for Conduit 13592
  WARNING 04: minimum elevation drop used for Conduit 13597
  WARNING 04: minimum elevation drop used for Conduit 13612
  WARNING 03: negative offset ignored for Link 13616
  WARNING 03: negative offset ignored for Link 13627
  WARNING 03: negative offset ignored for Link 13641
  WARNING 03: negative offset ignored for Link 13651
  WARNING 04: minimum elevation drop used for Conduit 13665
  WARNING 03: negative offset ignored for Link 13687
  WARNING 03: negative offset ignored for Link 13687
  WARNING 03: negative offset ignored for Link 13691
  WARNING 03: negative offset ignored for Link 13692
  WARNING 03: negative offset ignored for Link 13692
  WARNING 03: negative offset ignored for Link 13694
  WARNING 04: minimum elevation drop used for Conduit 13697
  WARNING 03: negative offset ignored for Link 13798
  WARNING 03: negative offset ignored for Link 13800
  WARNING 03: negative offset ignored for Link 13833
  WARNING 03: negative offset ignored for Link 13833
  WARNING 03: negative offset ignored for Link 13834
  WARNING 03: negative offset ignored for Link 13837
  WARNING 03: negative offset ignored for Link 13838
  WARNING 03: negative offset ignored for Link 13838
  WARNING 03: negative offset ignored for Link 13839
  WARNING 03: negative offset ignored for Link 13841
  WARNING 03: negative offset ignored for Link 13843
  WARNING 03: negative offset ignored for Link 13845
  WARNING 03: negative offset ignored for Link 13845
  WARNING 03: negative offset ignored for Link 13857
  WARNING 03: negative offset ignored for Link 13914
  WARNING 03: negative offset ignored for Link 13914
  WARNING 04: minimum elevation drop used for Conduit 13920
  WARNING 03: negative offset ignored for Link 13949
  WARNING 03: negative offset ignored for Link 14005
  WARNING 04: minimum elevation drop used for Conduit 14007
  WARNING 03: negative offset ignored for Link 14008
  WARNING 03: negative offset ignored for Link 14009
  WARNING 03: negative offset ignored for Link 14009
  WARNING 03: negative offset ignored for Link 14010
  WARNING 04: minimum elevation drop used for Conduit 14022
  WARNING 03: negative offset ignored for Link 15244
  WARNING 03: negative offset ignored for Link 15246
  WARNING 04: minimum elevation drop used for Conduit 15249
  WARNING 03: negative offset ignored for Link 16039
  WARNING 03: negative offset ignored for Link 16040
  WARNING 03: negative offset ignored for Link 16041
  WARNING 03: negative offset ignored for Link 16042
  WARNING 04: minimum elevation drop used for Conduit 16043
  WARNING 04: minimum elevation drop used for Conduit 16044
  WARNING 03: negative offset ignored for Link 16064
  WARNING 03: negative offset ignored for Link 16073
  WARNING 03: negative offset ignored for Link 16076
  WARNING 04: minimum elevation drop used for Conduit 16101
  WARNING 03: negative offset ignored for Link 16541
  WARNING 03: negative offset ignored for Link 16543
  WARNING 04: minimum elevation drop used for Conduit 16761
  WARNING 04: minimum elevation drop used for Conduit 16764
  WARNING 04: minimum elevation drop used for Conduit 16768
  WARNING 04: minimum elevation drop used for Conduit 16784
  WARNING 03: negative offset ignored for Link 16785
  WARNING 03: negative offset ignored for Link 16786
  WARNING 04: minimum elevation drop used for Conduit 16787
  WARNING 04: minimum elevation drop used for Conduit 16788
  WARNING 04: minimum elevation drop used for Conduit 16843
  WARNING 04: minimum elevation drop used for Conduit 16844
  WARNING 03: negative offset ignored for Link 18281
  WARNING 03: negative offset ignored for Link 18286
  WARNING 03: negative offset ignored for Link 18286
  WARNING 03: negative offset ignored for Link 18309
  WARNING 03: negative offset ignored for Link 18309
  WARNING 03: negative offset ignored for Link 18316
  WARNING 03: negative offset ignored for Link 18574
  WARNING 03: negative offset ignored for Link 18946
  WARNING 03: negative offset ignored for Link 18948
  WARNING 03: negative offset ignored for Link 19272
  WARNING 03: negative offset ignored for Link 19274
  WARNING 03: negative offset ignored for Link 19275
  WARNING 04: minimum elevation drop used for Conduit 19315
  WARNING 03: negative offset ignored for Link 19324
  WARNING 03: negative offset ignored for Link 19327
  WARNING 03: negative offset ignored for Link 19328
  WARNING 03: negative offset ignored for Link 19328
  WARNING 03: negative offset ignored for Link 19329
  WARNING 03: negative offset ignored for Link 19336
  WARNING 03: negative offset ignored for Link 19342
  WARNING 04: minimum elevation drop used for Conduit 19364
  WARNING 04: minimum elevation drop used for Conduit 19366
  WARNING 03: negative offset ignored for Link 19372
  WARNING 03: negative offset ignored for Link 19374
  WARNING 03: negative offset ignored for Link 19382
  WARNING 04: minimum elevation drop used for Conduit 19388
  WARNING 03: negative offset ignored for Link 19396
  WARNING 03: negative offset ignored for Link 19724
  WARNING 03: negative offset ignored for Link 19772
  WARNING 04: minimum elevation drop used for Conduit 19773
  WARNING 03: negative offset ignored for Link 19780
  WARNING 04: minimum elevation drop used for Conduit 20265
  WARNING 04: minimum elevation drop used for Conduit 20267
  WARNING 03: negative offset ignored for Link 20386
  WARNING 03: negative offset ignored for Link 20387
  WARNING 03: negative offset ignored for Link 20387
  WARNING 04: minimum elevation drop used for Conduit 20390
  WARNING 04: minimum elevation drop used for Conduit 20393
  WARNING 04: minimum elevation drop used for Conduit 20397
  WARNING 03: negative offset ignored for Link 20408
  WARNING 03: negative offset ignored for Link 20417
  WARNING 03: negative offset ignored for Link 20418
  WARNING 03: negative offset ignored for Link 20434
  WARNING 03: negative offset ignored for Link 20448
  WARNING 03: negative offset ignored for Link 20461
  WARNING 03: negative offset ignored for Link 20462
  WARNING 03: negative offset ignored for Link 21001
  WARNING 03: negative offset ignored for Link 21001
  WARNING 03: negative offset ignored for Link 21003
  WARNING 04: minimum elevation drop used for Conduit 21006
  WARNING 04: minimum elevation drop used for Conduit 21007
  WARNING 04: minimum elevation drop used for Conduit 21010
  WARNING 03: negative offset ignored for Link 21011
  WARNING 04: minimum elevation drop used for Conduit 21015
  WARNING 03: negative offset ignored for Link 21034
  WARNING 04: minimum elevation drop used for Conduit 21043
  WARNING 04: minimum elevation drop used for Conduit 21047
  WARNING 03: negative offset ignored for Link 21048
  WARNING 03: negative offset ignored for Link 21049
  WARNING 03: negative offset ignored for Link 21053
  WARNING 03: negative offset ignored for Link 21053
  WARNING 03: negative offset ignored for Link 21061
  WARNING 04: minimum elevation drop used for Conduit 21063_22
  WARNING 03: negative offset ignored for Link 21065
  WARNING 03: negative offset ignored for Link 21069
  WARNING 03: negative offset ignored for Link 21072
  WARNING 03: negative offset ignored for Link 21072
  WARNING 03: negative offset ignored for Link 21073
  WARNING 03: negative offset ignored for Link 21074
  WARNING 03: negative offset ignored for Link 21074
  WARNING 03: negative offset ignored for Link 21082
  WARNING 03: negative offset ignored for Link 21082
  WARNING 03: negative offset ignored for Link 21100
  WARNING 03: negative offset ignored for Link 21104
  WARNING 04: minimum elevation drop used for Conduit 21105
  WARNING 04: minimum elevation drop used for Conduit 21106
  WARNING 03: negative offset ignored for Link 21108
  WARNING 03: negative offset ignored for Link 21110
  WARNING 03: negative offset ignored for Link 21110
  WARNING 03: negative offset ignored for Link 21111
  WARNING 03: negative offset ignored for Link 21113
  WARNING 03: negative offset ignored for Link 21117
  WARNING 03: negative offset ignored for Link 21118
  WARNING 03: negative offset ignored for Link 21119
  WARNING 03: negative offset ignored for Link 21121
  WARNING 03: negative offset ignored for Link 21128
  WARNING 03: negative offset ignored for Link 21129
  WARNING 03: negative offset ignored for Link 21133
  WARNING 03: negative offset ignored for Link 21135
  WARNING 03: negative offset ignored for Link 21138
  WARNING 03: negative offset ignored for Link 21140
  WARNING 04: minimum elevation drop used for Conduit 21143
  WARNING 03: negative offset ignored for Link 21175
  WARNING 03: negative offset ignored for Link 21179
  WARNING 03: negative offset ignored for Link 21181
  WARNING 03: negative offset ignored for Link 21186
  WARNING 03: negative offset ignored for Link 21188
  WARNING 03: negative offset ignored for Link 21189
  WARNING 03: negative offset ignored for Link 21191
  WARNING 03: negative offset ignored for Link 21194
  WARNING 03: negative offset ignored for Link 21196
  WARNING 03: negative offset ignored for Link 21196
  WARNING 03: negative offset ignored for Link 21198
  WARNING 03: negative offset ignored for Link 21203
  WARNING 03: negative offset ignored for Link 21204
  WARNING 04: minimum elevation drop used for Conduit 21207
  WARNING 04: minimum elevation drop used for Conduit 21247
  WARNING 03: negative offset ignored for Link 21252
  WARNING 03: negative offset ignored for Link 21255
  WARNING 03: negative offset ignored for Link 21256
  WARNING 03: negative offset ignored for Link 21261
  WARNING 03: negative offset ignored for Link 21281
  WARNING 03: negative offset ignored for Link 21285
  WARNING 03: negative offset ignored for Link 21285
  WARNING 03: negative offset ignored for Link 21286
  WARNING 03: negative offset ignored for Link 21292
  WARNING 03: negative offset ignored for Link 21294
  WARNING 03: negative offset ignored for Link 21298
  WARNING 03: negative offset ignored for Link 21300
  WARNING 03: negative offset ignored for Link 21305
  WARNING 03: negative offset ignored for Link 21383
  WARNING 04: minimum elevation drop used for Conduit 21394
  WARNING 04: minimum elevation drop used for Conduit 21396
  WARNING 03: negative offset ignored for Link 21418
  WARNING 03: negative offset ignored for Link 21418
  WARNING 03: negative offset ignored for Link 21420
  WARNING 04: minimum elevation drop used for Conduit 21443
  WARNING 04: minimum elevation drop used for Conduit 21444
  WARNING 03: negative offset ignored for Link 21445
  WARNING 04: minimum elevation drop used for Conduit 21452
  WARNING 03: negative offset ignored for Link 21453
  WARNING 04: minimum elevation drop used for Conduit 21454
  WARNING 03: negative offset ignored for Link 22565
  WARNING 03: negative offset ignored for Link 22568
  WARNING 04: minimum elevation drop used for Conduit 22572
  WARNING 04: minimum elevation drop used for Conduit 22587
  WARNING 04: minimum elevation drop used for Conduit 22588
  WARNING 04: minimum elevation drop used for Conduit 23048
  WARNING 04: minimum elevation drop used for Conduit 23049
  WARNING 03: negative offset ignored for Link 23096
  WARNING 04: minimum elevation drop used for Conduit 23096
  WARNING 03: negative offset ignored for Link 23804
  WARNING 03: negative offset ignored for Link 23804
  WARNING 03: negative offset ignored for Link 23881
  WARNING 03: negative offset ignored for Link 23882
  WARNING 03: negative offset ignored for Link 23882
  WARNING 03: negative offset ignored for Link 24456
  WARNING 03: negative offset ignored for Link 24457
  WARNING 04: minimum elevation drop used for Conduit 24575
  WARNING 03: negative offset ignored for Link 24698
  WARNING 04: minimum elevation drop used for Conduit 24841
  WARNING 04: minimum elevation drop used for Conduit 24845
  WARNING 04: minimum elevation drop used for Conduit 24846
  WARNING 03: negative offset ignored for Link 25060
  WARNING 03: negative offset ignored for Link 25067
  WARNING 03: negative offset ignored for Link 4182
  WARNING 03: negative offset ignored for Link 4530
  WARNING 03: negative offset ignored for Link 4530
  WARNING 03: negative offset ignored for Link 4531
  WARNING 03: negative offset ignored for Link 4533
  WARNING 03: negative offset ignored for Link 4534
  WARNING 03: negative offset ignored for Link 8459
  WARNING 02: maximum depth increased for Node 16024_1
  WARNING 02: maximum depth increased for Node 16024_11
  WARNING 02: maximum depth increased for Node 16024_12
  WARNING 02: maximum depth increased for Node 19473
  WARNING 02: maximum depth increased for Node 21063_1
  WARNING 02: maximum depth increased for Node 21063_11
  
  *********************************************************
  NOTE: The summary statistics displayed in this report are
  based on results found at every computational time step,  
  not just on results from each reporting time step.
  *********************************************************
  
  ****************
  Analysis Options
  ****************
  Flow Units ............... LPS
  Process Models:
    Rainfall/Runoff ........ NO
    RDII ................... NO
    Snowmelt ............... NO
    Groundwater ............ NO
    Flow Routing ........... YES
    Ponding Allowed ........ NO
    Water Quality .......... NO
  Flow Routing Method ...... DYNWAVE
  Surcharge Method ......... EXTRAN
  Starting Date ............ 01/01/2002 00:00:00
  Ending Date .............. 01/02/2002 06:00:00
  Antecedent Dry Days ...... 5.0
  Report Time Step ......... 00:01:00
  Routing Time Step ........ 10.00 sec
  Variable Time Step ....... YES
  Maximum Trials ........... 8
  Number of Threads ........ 1
  Head Tolerance ........... 0.000100 m
  
  
  **************************        Volume        Volume
  Flow Routing Continuity        hectare-m      10^6 ltr
  **************************     ---------     ---------
  Dry Weather Inflow .......         0.000         0.000
  Wet Weather Inflow .......         0.000         0.000
  Groundwater Inflow .......         0.000         0.000
  RDII Inflow ..............         0.000         0.000
  External Inflow ..........         0.000         0.000
  External Outflow .........         0.000         0.000
  Flooding Loss ............         0.000         0.000
  Evaporation Loss .........         0.000         0.000
  Exfiltration Loss ........         0.000         0.000
  Initial Stored Volume ....         0.046         0.457
  Final Stored Volume ......         0.046         0.457
  Continuity Error (%) .....         0.000
  
  
  ***************************
  Time-Step Critical Elements
  ***************************
  None
  
  
  ********************************
  Highest Flow Instability Indexes
  ********************************
  All links are stable.
  
  
  ******************
  Node Depth Summary
  ******************
  
  ---------------------------------------------------------------------------------
                                 Average  Maximum  Maximum  Time of Max    Reported
                                   Depth    Depth      HGL   Occurrence   Max Depth
  Node                 Type       Meters   Meters   Meters  days hr:min      Meters
  ---------------------------------------------------------------------------------
  1031                 JUNCTION  -nan(ind)     0.00     0.11     0  00:00        0.00
  10452                JUNCTION  -nan(ind)     0.00    -0.35     0  00:00        0.00
  10453                JUNCTION  -nan(ind)     0.00    -0.85     0  00:00        0.00
  10454                JUNCTION  -nan(ind)     0.00    -1.00     0  00:00        0.00
  10514                JUNCTION  -nan(ind)     0.00    -0.17     0  00:00        0.00
  10516                JUNCTION  -nan(ind)     0.00    -0.55     0  00:00        0.00
  10517                JUNCTION  -nan(ind)     0.00    -0.71     0  00:00        0.00
  10518                JUNCTION  -nan(ind)     0.00    -0.44     0  00:00        0.00
  10536                JUNCTION  -nan(ind)     0.00     5.78     0  00:00        0.00
  10537                JUNCTION  -nan(ind)     0.00     3.00     0  00:00        0.00
  10538                JUNCTION  -nan(ind)     0.00     2.91     0  00:00        0.00
  10539                JUNCTION  -nan(ind)     0.00     2.42     0  00:00        0.00
  10575                JUNCTION  -nan(ind)     0.00    -2.20     0  00:00        0.00
  10576                JUNCTION  -nan(ind)     0.00    -1.99     0  00:00        0.00
  10577                JUNCTION  -nan(ind)     0.00    -1.70     0  00:00        0.00
  10578                JUNCTION  -nan(ind)     0.00    -1.45     0  00:00        0.00
  10579                JUNCTION  -nan(ind)     0.00    -1.20     0  00:00        0.00
  10597                JUNCTION  -nan(ind)     0.00    -0.91     0  00:00        0.00
  10609                JUNCTION  -nan(ind)     0.00    -0.58     0  00:00        0.00
  10613                JUNCTION  -nan(ind)     0.00    -0.27     0  00:00        0.00
  10641                JUNCTION  -nan(ind)     0.00    -2.11     0  00:00        0.00
  10662                JUNCTION  -nan(ind)     0.00    -2.58     0  00:00        0.00
  10665                JUNCTION  -nan(ind)     0.00    -1.50     0  00:00        0.00
  10666                JUNCTION  -nan(ind)     0.00    -1.25     0  00:00        0.00
  10667                JUNCTION  -nan(ind)     0.00    -1.08     0  00:00        0.00
  10668                JUNCTION  -nan(ind)     0.00    -2.96     0  00:00        0.00
  10669                JUNCTION  -nan(ind)     0.00    -3.18     0  00:00        0.00
  10670                JUNCTION  -nan(ind)     0.00    -3.33     0  00:00        0.00
  10671                JUNCTION  -nan(ind)     0.00    -1.24     0  00:00        0.00
  10715                JUNCTION  -nan(ind)     0.00    -0.04     0  00:00        0.00
  10716                JUNCTION  -nan(ind)     0.00    -0.02     0  00:00        0.00
  10717                JUNCTION  -nan(ind)     0.00     0.03     0  00:00        0.00
  10718                JUNCTION  -nan(ind)     0.00     0.18     0  00:00        0.00
  10719                JUNCTION  -nan(ind)     0.00     0.35     0  00:00        0.00
  10720                JUNCTION  -nan(ind)     0.00     0.47     0  00:00        0.00
  10721                JUNCTION  -nan(ind)     0.00     0.76     0  00:00        0.00
  10722                JUNCTION  -nan(ind)     0.00     0.99     0  00:00        0.00
  10723                JUNCTION  -nan(ind)     0.00     2.77     0  00:00        0.00
  10724                JUNCTION  -nan(ind)     0.00    18.80     0  00:00        0.00
  10725                JUNCTION  -nan(ind)     0.00    33.87     0  00:00        0.00
  10726                JUNCTION  -nan(ind)     0.00    37.79     0  00:00        0.00
  10727                JUNCTION  -nan(ind)     0.00    38.47     0  00:00        0.00
  10728                JUNCTION  -nan(ind)     0.00    39.28     0  00:00        0.00
  10732                JUNCTION  -nan(ind)     0.00    41.38     0  00:00        0.00
  10733                JUNCTION  -nan(ind)     0.00    48.98     0  00:00        0.00
  10759                JUNCTION  -nan(ind)     0.00     1.64     0  00:00        0.00
  10770                JUNCTION  -nan(ind)     0.00    31.06     0  00:00        0.00
  10772                JUNCTION  -nan(ind)     0.00    30.76     0  00:00        0.00
  10773                JUNCTION  -nan(ind)     0.00    23.48     0  00:00        0.00
  10775                JUNCTION  -nan(ind)     0.00    21.36     0  00:00        0.00
  10776                JUNCTION  -nan(ind)     0.00    21.31     0  00:00        0.00
  10789                JUNCTION  -nan(ind)     0.00    21.65     0  00:00        0.00
  10883                JUNCTION  -nan(ind)     0.00    34.33     0  00:00        0.00
  10884                JUNCTION  -nan(ind)     0.00    33.02     0  00:00        0.00
  10885                JUNCTION  -nan(ind)     0.00    31.77     0  00:00        0.00
  10886                JUNCTION  -nan(ind)     0.00    31.25     0  00:00        0.00
  10902                JUNCTION  -nan(ind)     0.00   123.59     0  00:00        0.00
  10903                JUNCTION  -nan(ind)     0.00   123.06     0  00:00        0.00
  10904                JUNCTION  -nan(ind)     0.00   122.61     0  00:00        0.00
  10905                JUNCTION  -nan(ind)     0.00   121.78     0  00:00        0.00
  10912                JUNCTION  -nan(ind)     0.00   117.73     0  00:00        0.00
  10913                JUNCTION  -nan(ind)     0.00   118.22     0  00:00        0.00
  10914                JUNCTION  -nan(ind)     0.00   116.00     0  00:00        0.00
  10915                JUNCTION  -nan(ind)     0.00   111.82     0  00:00        0.00
  10916                JUNCTION  -nan(ind)     0.00   118.66     0  00:00        0.00
  10920                JUNCTION  -nan(ind)     0.00    59.22     0  00:00        0.00
  10921                JUNCTION  -nan(ind)     0.00    60.20     0  00:00        0.00
  10927                JUNCTION  -nan(ind)     0.00    66.16     0  00:00        0.00
  10928                JUNCTION  -nan(ind)     0.00    66.01     0  00:00        0.00
  10929                JUNCTION  -nan(ind)     0.00    63.78     0  00:00        0.00
  10930                JUNCTION  -nan(ind)     0.00    62.72     0  00:00        0.00
  10931                JUNCTION  -nan(ind)     0.00    62.37     0  00:00        0.00
  10932                JUNCTION  -nan(ind)     0.00    59.25     0  00:00        0.00
  10933                JUNCTION  -nan(ind)     0.00    56.79     0  00:00        0.00
  10937                JUNCTION  -nan(ind)     0.00    57.24     0  00:00        0.00
  10938                JUNCTION  -nan(ind)     0.00    57.71     0  00:00        0.00
  10939                JUNCTION  -nan(ind)     0.00    60.31     0  00:00        0.00
  10940                JUNCTION  -nan(ind)     0.00    61.99     0  00:00        0.00
  10941                JUNCTION  -nan(ind)     0.00    62.31     0  00:00        0.00
  10993                JUNCTION  -nan(ind)     0.00    -1.93     0  00:00        0.00
  10994                JUNCTION  -nan(ind)     0.00    -1.64     0  00:00        0.00
  11017                JUNCTION  -nan(ind)     0.00     2.22     0  00:00        0.00
  11024                JUNCTION  -nan(ind)     0.00     2.07     0  00:00        0.00
  11025                JUNCTION  -nan(ind)     0.00     1.83     0  00:00        0.00
  11026                JUNCTION  -nan(ind)     0.00     1.55     0  00:00        0.00
  11027                JUNCTION  -nan(ind)     0.00     1.25     0  00:00        0.00
  11031                JUNCTION  -nan(ind)     0.00     1.90     0  00:00        0.00
  11102                JUNCTION  -nan(ind)     0.00    -2.11     0  00:00        0.00
  11103                JUNCTION  -nan(ind)     0.00    -2.18     0  00:00        0.00
  11104                JUNCTION  -nan(ind)     0.00    -0.50     0  00:00        0.00
  11105                JUNCTION  -nan(ind)     0.00    -1.93     0  00:00        0.00
  11106                JUNCTION  -nan(ind)     0.00    -0.53     0  00:00        0.00
  11107                JUNCTION  -nan(ind)     0.00    -0.30     0  00:00        0.00
  11108                JUNCTION  -nan(ind)     0.00    -0.08     0  00:00        0.00
  11120                JUNCTION  -nan(ind)     0.00    -2.50     0  00:00        0.00
  11154                JUNCTION  -nan(ind)     0.00    -0.30     0  00:00        0.00
  11194                JUNCTION  -nan(ind)     0.00    34.91     0  00:00        0.00
  11201                JUNCTION  -nan(ind)     0.00    -4.19     0  00:00        0.00
  11217                JUNCTION  -nan(ind)     0.00    -3.54     0  00:00        0.00
  11219                JUNCTION  -nan(ind)     0.00    -3.69     0  00:00        0.00
  11220                JUNCTION  -nan(ind)     0.00    -4.03     0  00:00        0.00
  11234                JUNCTION  -nan(ind)     0.00   131.50     0  00:00        0.00
  11235                JUNCTION  -nan(ind)     0.00   128.82     0  00:00        0.00
  11236                JUNCTION  -nan(ind)     0.00   125.08     0  00:00        0.00
  11237                JUNCTION  -nan(ind)     0.00   121.84     0  00:00        0.00
  11273                JUNCTION  -nan(ind)     0.00    22.12     0  00:00        0.00
  11283                JUNCTION  -nan(ind)     0.00    -2.04     0  00:00        0.00
  11284                JUNCTION  -nan(ind)     0.00    -1.97     0  00:00        0.00
  11285                JUNCTION  -nan(ind)     0.00    -1.95     0  00:00        0.00
  11286                JUNCTION  -nan(ind)     0.00    -1.87     0  00:00        0.00
  11287                JUNCTION  -nan(ind)     0.00    -1.66     0  00:00        0.00
  11294                JUNCTION  -nan(ind)     0.00    -1.50     0  00:00        0.00
  11295                JUNCTION  -nan(ind)     0.00    -1.29     0  00:00        0.00
  11296                JUNCTION  -nan(ind)     0.00    -1.14     0  00:00        0.00
  11331                JUNCTION  -nan(ind)     0.00    -1.25     0  00:00        0.00
  11339                JUNCTION  -nan(ind)     0.00     1.19     0  00:00        0.00
  11340                JUNCTION  -nan(ind)     0.00    -0.70     0  00:00        0.00
  11341                JUNCTION  -nan(ind)     0.00    -0.77     0  00:00        0.00
  11342                JUNCTION  -nan(ind)     0.00    -0.95     0  00:00        0.00
  11343                JUNCTION  -nan(ind)     0.00    -1.18     0  00:00        0.00
  11344                JUNCTION  -nan(ind)     0.00    -1.37     0  00:00        0.00
  11345                JUNCTION  -nan(ind)     0.00    -1.46     0  00:00        0.00
  11346                JUNCTION  -nan(ind)     0.00    -1.50     0  00:00        0.00
  11364                JUNCTION  -nan(ind)     0.00     8.97     0  00:00        0.00
  11366                JUNCTION  -nan(ind)     0.00     4.67     0  00:00        0.00
  11367                JUNCTION  -nan(ind)     0.00     3.32     0  00:00        0.00
  11374                JUNCTION  -nan(ind)     0.00     2.43     0  00:00        0.00
  11375                JUNCTION  -nan(ind)     0.00     2.06     0  00:00        0.00
  11376                JUNCTION  -nan(ind)     0.00     1.75     0  00:00        0.00
  11377                JUNCTION  -nan(ind)     0.00     0.36     0  00:00        0.00
  11378                JUNCTION  -nan(ind)     0.00     0.29     0  00:00        0.00
  11381                JUNCTION  -nan(ind)     0.00     0.64     0  00:00        0.00
  11388                JUNCTION  -nan(ind)     0.00     8.01     0  00:00        0.00
  11389                JUNCTION  -nan(ind)     0.00    -0.31     0  00:00        0.00
  11390                JUNCTION  -nan(ind)     0.00    -0.52     0  00:00        0.00
  11391                JUNCTION  -nan(ind)     0.00    -0.06     0  00:00        0.00
  11393                JUNCTION  -nan(ind)     0.00    -0.04     0  00:00        0.00
  11394                JUNCTION  -nan(ind)     0.00    -0.14     0  00:00        0.00
  11395                JUNCTION  -nan(ind)     0.00    -0.55     0  00:00        0.00
  11492                JUNCTION  -nan(ind)     0.00     1.10     0  00:00        0.00
  11497                JUNCTION  -nan(ind)     0.00    -1.44     0  00:00        0.00
  11545                JUNCTION  -nan(ind)     0.00    -0.62     0  00:00        0.00
  11556                JUNCTION  -nan(ind)     0.00     2.21     0  00:00        0.00
  11557                JUNCTION  -nan(ind)     0.00    -0.91     0  00:00        0.00
  11561                JUNCTION  -nan(ind)     0.00    -0.84     0  00:00        0.00
  11702                JUNCTION  -nan(ind)     0.00    -2.38     0  00:00        0.00
  11703                JUNCTION  -nan(ind)     0.00    -1.81     0  00:00        0.00
  11704                JUNCTION  -nan(ind)     0.00    -1.53     0  00:00        0.00
  11705                JUNCTION  -nan(ind)     0.00     1.23     0  00:00        0.00
  11821                JUNCTION  -nan(ind)     0.00    -1.60     0  00:00        0.00
  11826                JUNCTION  -nan(ind)     0.00    -1.36     0  00:00        0.00
  11827                JUNCTION  -nan(ind)     0.00    -1.48     0  00:00        0.00
  11830                JUNCTION  -nan(ind)     0.00    -1.25     0  00:00        0.00
  11831                JUNCTION  -nan(ind)     0.00    -1.07     0  00:00        0.00
  11999                JUNCTION  -nan(ind)     0.00    11.07     0  00:00        0.00
  12017                JUNCTION  -nan(ind)     0.00     0.65     0  00:00        0.00
  12018                JUNCTION  -nan(ind)     0.00     0.35     0  00:00        0.00
  12019                JUNCTION  -nan(ind)     0.00    -0.30     0  00:00        0.00
  12020                JUNCTION  -nan(ind)     0.00     0.00     0  00:00        0.00
  12023                JUNCTION  -nan(ind)     0.00    -0.70     0  00:00        0.00
  12147                JUNCTION  -nan(ind)     0.00    39.15     0  00:00        0.00
  12148                JUNCTION  -nan(ind)     0.00    37.22     0  00:00        0.00
  12149                JUNCTION  -nan(ind)     0.00    37.45     0  00:00        0.00
  12150                JUNCTION  -nan(ind)     0.00    39.83     0  00:00        0.00
  12151                JUNCTION  -nan(ind)     0.00    41.80     0  00:00        0.00
  12152                JUNCTION  -nan(ind)     0.00    43.55     0  00:00        0.00
  12153                JUNCTION  -nan(ind)     0.00    46.46     0  00:00        0.00
  12154                JUNCTION  -nan(ind)     0.00    49.21     0  00:00        0.00
  12155                JUNCTION  -nan(ind)     0.00    54.60     0  00:00        0.00
  12156                JUNCTION  -nan(ind)     0.00    55.12     0  00:00        0.00
  12208                JUNCTION  -nan(ind)     0.00    22.23     0  00:00        0.00
  12209                JUNCTION  -nan(ind)     0.00    21.16     0  00:00        0.00
  12210                JUNCTION  -nan(ind)     0.00    20.20     0  00:00        0.00
  12211                JUNCTION  -nan(ind)     0.00    18.80     0  00:00        0.00
  12212                JUNCTION  -nan(ind)     0.00    16.89     0  00:00        0.00
  12213                JUNCTION  -nan(ind)     0.00    15.74     0  00:00        0.00
  12214                JUNCTION  -nan(ind)     0.00    15.40     0  00:00        0.00
  12215                JUNCTION  -nan(ind)     0.00     5.94     0  00:00        0.00
  12262                JUNCTION  -nan(ind)     0.00    10.98     0  00:00        0.00
  12266                JUNCTION  -nan(ind)     0.00    -2.00     0  00:00        0.00
  12267                JUNCTION  -nan(ind)     0.00    -2.03     0  00:00        0.00
  12268                JUNCTION  -nan(ind)     0.00    -1.83     0  00:00        0.00
  12269                JUNCTION  -nan(ind)     0.00    -1.50     0  00:00        0.00
  12272                JUNCTION  -nan(ind)     0.00    -1.11     0  00:00        0.00
  12281                JUNCTION  -nan(ind)     0.00    -0.42     0  00:00        0.00
  12283                JUNCTION  -nan(ind)     0.00    -0.09     0  00:00        0.00
  12312                JUNCTION  -nan(ind)     0.00     0.15     0  00:00        0.00
  12324                JUNCTION  -nan(ind)     0.00    -0.25     0  00:00        0.00
  12329                JUNCTION  -nan(ind)     0.00    -0.67     0  00:00        0.00
  12331                JUNCTION  -nan(ind)     0.00    -1.27     0  00:00        0.00
  12336                JUNCTION  -nan(ind)     0.00     0.06     0  00:00        0.00
  12564                JUNCTION  -nan(ind)     0.00    -2.35     0  00:00        0.00
  12769                JUNCTION  -nan(ind)     0.00    79.62     0  00:00        0.00
  12770                JUNCTION  -nan(ind)     0.00    80.17     0  00:00        0.00
  12771                JUNCTION  -nan(ind)     0.00    83.40     0  00:00        0.00
  12772                JUNCTION  -nan(ind)     0.00    84.28     0  00:00        0.00
  12773                JUNCTION  -nan(ind)     0.00    86.38     0  00:00        0.00
  12774                JUNCTION  -nan(ind)     0.00    88.22     0  00:00        0.00
  12775                JUNCTION  -nan(ind)     0.00    89.26     0  00:00        0.00
  12776                JUNCTION  -nan(ind)     0.00    91.45     0  00:00        0.00
  12778                JUNCTION  -nan(ind)     0.00   107.40     0  00:00        0.00
  12779                JUNCTION  -nan(ind)     0.00   109.20     0  00:00        0.00
  12780                JUNCTION  -nan(ind)     0.00    87.70     0  00:00        0.00
  12982                JUNCTION  -nan(ind)     0.00    -1.19     0  00:00        0.00
  12984                JUNCTION  -nan(ind)     0.00    -1.09     0  00:00        0.00
  12985                JUNCTION  -nan(ind)     0.00     0.18     0  00:00        0.00
  12988                JUNCTION  -nan(ind)     0.00     0.43     0  00:00        0.00
  13013                JUNCTION  -nan(ind)     0.00    -1.51     0  00:00        0.00
  13014                JUNCTION  -nan(ind)     0.00    -1.88     0  00:00        0.00
  13067                JUNCTION  -nan(ind)     0.00     9.22     0  00:00        0.00
  13068                JUNCTION  -nan(ind)     0.00     5.05     0  00:00        0.00
  13069                JUNCTION  -nan(ind)     0.00     3.56     0  00:00        0.00
  13070                JUNCTION  -nan(ind)     0.00     3.16     0  00:00        0.00
  13071                JUNCTION  -nan(ind)     0.00     3.02     0  00:00        0.00
  13151                JUNCTION  -nan(ind)     0.00   119.28     0  00:00        0.00
  13321_1              JUNCTION  -nan(ind)     0.00     4.25     0  00:00        0.00
  13329_1              JUNCTION  -nan(ind)     0.00     1.50     0  00:00        0.00
  13370_1              JUNCTION  -nan(ind)     0.00   130.00     0  00:00        0.00
  13391_1              JUNCTION  -nan(ind)     0.00     2.50     0  00:00        0.00
  13396_1              JUNCTION  -nan(ind)     0.00     1.80     0  00:00        0.00
  13449                JUNCTION  -nan(ind)     0.00    -1.29     0  00:00        0.00
  13450                JUNCTION  -nan(ind)     0.00    -0.50     0  00:00        0.00
  13452                JUNCTION  -nan(ind)     0.00    -1.11     0  00:00        0.00
  13487                JUNCTION  -nan(ind)     0.00     1.31     0  00:00        0.00
  13488                JUNCTION  -nan(ind)     0.00     1.49     0  00:00        0.00
  13489                JUNCTION  -nan(ind)     0.00     1.15     0  00:00        0.00
  13490                JUNCTION  -nan(ind)     0.00     1.12     0  00:00        0.00
  13491                JUNCTION  -nan(ind)     0.00    -0.25     0  00:00        0.00
  13492                JUNCTION  -nan(ind)     0.00     1.70     0  00:00        0.00
  13494                JUNCTION  -nan(ind)     0.00    -2.85     0  00:00        0.00
  13495                JUNCTION  -nan(ind)     0.00     1.98     0  00:00        0.00
  13496                JUNCTION  -nan(ind)     0.00    -0.17     0  00:00        0.00
  13572                JUNCTION  -nan(ind)     0.00    -1.50     0  00:00        0.00
  13573                JUNCTION  -nan(ind)     0.00    -0.48     0  00:00        0.00
  13574                JUNCTION  -nan(ind)     0.00    -0.30     0  00:00        0.00
  13661                JUNCTION  -nan(ind)     0.00     0.00     0  00:00        0.00
  13674                JUNCTION  -nan(ind)     0.00     2.36     0  00:00        0.00
  13675                JUNCTION  -nan(ind)     0.00     0.10     0  00:00        0.00
  13676                JUNCTION  -nan(ind)     0.00    -0.15     0  00:00        0.00
  13677                JUNCTION  -nan(ind)     0.00     0.60     0  00:00        0.00
  13678                JUNCTION  -nan(ind)     0.00     1.49     0  00:00        0.00
  13679                JUNCTION  -nan(ind)     0.00     1.85     0  00:00        0.00
  13680                JUNCTION  -nan(ind)     0.00     0.35     0  00:00        0.00
  13681                JUNCTION  -nan(ind)     0.00     2.10     0  00:00        0.00
  13682                JUNCTION  -nan(ind)     0.00     1.88     0  00:00        0.00
  13683                JUNCTION  -nan(ind)     0.00    22.33     0  00:00        0.00
  13684                JUNCTION  -nan(ind)     0.00    19.63     0  00:00        0.00
  13685                JUNCTION  -nan(ind)     0.00    18.60     0  00:00        0.00
  13698                JUNCTION  -nan(ind)     0.00     1.24     0  00:00        0.00
  13699                JUNCTION  -nan(ind)     0.00     1.79     0  00:00        0.00
  13700                JUNCTION  -nan(ind)     0.00     1.15     0  00:00        0.00
  13701                JUNCTION  -nan(ind)     0.00     1.90     0  00:00        0.00
  13703                JUNCTION  -nan(ind)     0.00     0.90     0  00:00        0.00
  13704                JUNCTION  -nan(ind)     0.00     0.15     0  00:00        0.00
  13705                JUNCTION  -nan(ind)     0.00     1.65     0  00:00        0.00
  13706                JUNCTION  -nan(ind)     0.00     0.85     0  00:00        0.00
  13707                JUNCTION  -nan(ind)     0.00     1.80     0  00:00        0.00
  13708                JUNCTION  -nan(ind)     0.00     1.90     0  00:00        0.00
  13709                JUNCTION  -nan(ind)     0.00     0.98     0  00:00        0.00
  13710                JUNCTION  -nan(ind)     0.00     1.65     0  00:00        0.00
  13711                JUNCTION  -nan(ind)     0.00     1.03     0  00:00        0.00
  13712                JUNCTION  -nan(ind)     0.00     1.19     0  00:00        0.00
  13713                JUNCTION  -nan(ind)     0.00     1.40     0  00:00        0.00
  13714                JUNCTION  -nan(ind)     0.00     2.45     0  00:00        0.00
  13716                JUNCTION  -nan(ind)     0.00     1.66     0  00:00        0.00
  13717                JUNCTION  -nan(ind)     0.00     1.72     0  00:00        0.00
  13718                JUNCTION  -nan(ind)     0.00   126.41     0  00:00        0.00
  13719                JUNCTION  -nan(ind)     0.00   110.01     0  00:00        0.00
  13720                JUNCTION  -nan(ind)     0.00     2.40     0  00:00        0.00
  13721                JUNCTION  -nan(ind)     0.00     1.84     0  00:00        0.00
  13722                JUNCTION  -nan(ind)     0.00     1.40     0  00:00        0.00
  13723                JUNCTION  -nan(ind)     0.00     1.21     0  00:00        0.00
  13724                JUNCTION  -nan(ind)     0.00     1.17     0  00:00        0.00
  13725                JUNCTION  -nan(ind)     0.00     1.15     0  00:00        0.00
  13726                JUNCTION  -nan(ind)     0.00     1.52     0  00:00        0.00
  13727                JUNCTION  -nan(ind)     0.00     2.98     0  00:00        0.00
  13728                JUNCTION  -nan(ind)     0.00     1.75     0  00:00        0.00
  13729                JUNCTION  -nan(ind)     0.00     2.54     0  00:00        0.00
  13730                JUNCTION  -nan(ind)     0.00    64.17     0  00:00        0.00
  13731                JUNCTION  -nan(ind)     0.00     1.62     0  00:00        0.00
  13732                JUNCTION  -nan(ind)     0.00     1.15     0  00:00        0.00
  13733                JUNCTION  -nan(ind)     0.00     1.55     0  00:00        0.00
  13734                JUNCTION  -nan(ind)     0.00     2.05     0  00:00        0.00
  13735                JUNCTION  -nan(ind)     0.00     1.63     0  00:00        0.00
  13736                JUNCTION  -nan(ind)     0.00    46.71     0  00:00        0.00
  13737                JUNCTION  -nan(ind)     0.00     0.80     0  00:00        0.00
  13738                JUNCTION  -nan(ind)     0.00     6.21     0  00:00        0.00
  13739                JUNCTION  -nan(ind)     0.00    31.08     0  00:00        0.00
  13742                JUNCTION  -nan(ind)     0.00     1.40     0  00:00        0.00
  13743                JUNCTION  -nan(ind)     0.00     1.86     0  00:00        0.00
  13744                JUNCTION  -nan(ind)     0.00     0.90     0  00:00        0.00
  13745                JUNCTION  -nan(ind)     0.00     1.40     0  00:00        0.00
  13746                JUNCTION  -nan(ind)     0.00     0.61     0  00:00        0.00
  13747                JUNCTION  -nan(ind)     0.00     1.93     0  00:00        0.00
  13748                JUNCTION  -nan(ind)     0.00     0.65     0  00:00        0.00
  13750                JUNCTION  -nan(ind)     0.00     2.05     0  00:00        0.00
  13751                JUNCTION  -nan(ind)     0.00     1.44     0  00:00        0.00
  13752                JUNCTION  -nan(ind)     0.00     1.71     0  00:00        0.00
  13753                JUNCTION  -nan(ind)     0.00     2.08     0  00:00        0.00
  13754                JUNCTION  -nan(ind)     0.00     2.22     0  00:00        0.00
  13755                JUNCTION  -nan(ind)     0.00     2.24     0  00:00        0.00
  13756                JUNCTION  -nan(ind)     0.00    11.07     0  00:00        0.00
  13757                JUNCTION  -nan(ind)     0.00     1.77     0  00:00        0.00
  13758                JUNCTION  -nan(ind)     0.00     1.82     0  00:00        0.00
  13759                JUNCTION  -nan(ind)     0.00     1.40     0  00:00        0.00
  13761                JUNCTION  -nan(ind)     0.00     1.90     0  00:00        0.00
  13762                JUNCTION  -nan(ind)     0.00     2.65     0  00:00        0.00
  13763                JUNCTION  -nan(ind)     0.00    65.61     0  00:00        0.00
  13764                JUNCTION  -nan(ind)     0.00     1.68     0  00:00        0.00
  13765                JUNCTION  -nan(ind)     0.00     2.90     0  00:00        0.00
  13766                JUNCTION  -nan(ind)     0.00     3.72     0  00:00        0.00
  13790                JUNCTION  -nan(ind)     0.00    62.15     0  00:00        0.00
  13803_1              JUNCTION  -nan(ind)     0.00    52.00     0  00:00        0.00
  13820                JUNCTION  -nan(ind)     0.00     1.90     0  00:00        0.00
  13830                JUNCTION  -nan(ind)     0.00     1.95     0  00:00        0.00
  13832                JUNCTION  -nan(ind)     0.00     2.32     0  00:00        0.00
  13833                JUNCTION  -nan(ind)     0.00    23.21     0  00:00        0.00
  13836                JUNCTION  -nan(ind)     0.00     0.36     0  00:00        0.00
  13837                JUNCTION  -nan(ind)     0.00    60.51     0  00:00        0.00
  13841                JUNCTION  -nan(ind)     0.00     1.90     0  00:00        0.00
  13842                JUNCTION  -nan(ind)     0.00   121.97     0  00:00        0.00
  13843                JUNCTION  -nan(ind)     0.00     1.53     0  00:00        0.00
  13844                JUNCTION  -nan(ind)     0.00     2.29     0  00:00        0.00
  13845                JUNCTION  -nan(ind)     0.00     1.40     0  00:00        0.00
  13848                JUNCTION  -nan(ind)     0.00     2.08     0  00:00        0.00
  13855                JUNCTION  -nan(ind)     0.00     1.90     0  00:00        0.00
  13856                JUNCTION  -nan(ind)     0.00    39.10     0  00:00        0.00
  13858                JUNCTION  -nan(ind)     0.00     1.70     0  00:00        0.00
  13859                JUNCTION  -nan(ind)     0.00     0.69     0  00:00        0.00
  13892                JUNCTION  -nan(ind)     0.00    89.89     0  00:00        0.00
  13931                JUNCTION  -nan(ind)     0.00     3.90     0  00:00        0.00
  13933                JUNCTION  -nan(ind)     0.00     1.50     0  00:00        0.00
  13934                JUNCTION  -nan(ind)     0.00     2.71     0  00:00        0.00
  13940                JUNCTION  -nan(ind)     0.00    -0.90     0  00:00        0.00
  13942                JUNCTION  -nan(ind)     0.00     0.30     0  00:00        0.00
  13943                JUNCTION  -nan(ind)     0.00     0.10     0  00:00        0.00
  13944                JUNCTION  -nan(ind)     0.00     0.10     0  00:00        0.00
  13945                JUNCTION  -nan(ind)     0.00     0.35     0  00:00        0.00
  13946                JUNCTION  -nan(ind)     0.00     0.49     0  00:00        0.00
  13947                JUNCTION  -nan(ind)     0.00     2.52     0  00:00        0.00
  13948                JUNCTION  -nan(ind)     0.00     1.85     0  00:00        0.00
  13949                JUNCTION  -nan(ind)     0.00     1.76     0  00:00        0.00
  13950                JUNCTION  -nan(ind)     0.00     1.85     0  00:00        0.00
  13951                JUNCTION  -nan(ind)     0.00     1.43     0  00:00        0.00
  13952                JUNCTION  -nan(ind)     0.00     1.49     0  00:00        0.00
  13953                JUNCTION  -nan(ind)     0.00     0.33     0  00:00        0.00
  13954                JUNCTION  -nan(ind)     0.00     0.76     0  00:00        0.00
  13955                JUNCTION  -nan(ind)     0.00    -0.15     0  00:00        0.00
  13956                JUNCTION  -nan(ind)     0.00    -0.60     0  00:00        0.00
  13957                JUNCTION  -nan(ind)     0.00     2.35     0  00:00        0.00
  13958                JUNCTION  -nan(ind)     0.00     2.35     0  00:00        0.00
  13960                JUNCTION  -nan(ind)     0.00     1.60     0  00:00        0.00
  13978                JUNCTION  -nan(ind)     0.00    22.76     0  00:00        0.00
  13979                JUNCTION  -nan(ind)     0.00    21.44     0  00:00        0.00
  13980                JUNCTION  -nan(ind)     0.00     1.60     0  00:00        0.00
  13987                JUNCTION  -nan(ind)     0.00     1.50     0  00:00        0.00
  13988                JUNCTION  -nan(ind)     0.00     1.60     0  00:00        0.00
  13994                JUNCTION  -nan(ind)     0.00     0.85     0  00:00        0.00
  13995                JUNCTION  -nan(ind)     0.00     0.85     0  00:00        0.00
  14000                JUNCTION  -nan(ind)     0.00     1.10     0  00:00        0.00
  14001                JUNCTION  -nan(ind)     0.00     0.50     0  00:00        0.00
  14002                JUNCTION  -nan(ind)     0.00     1.60     0  00:00        0.00
  14004                JUNCTION  -nan(ind)     0.00     2.10     0  00:00        0.00
  14024                JUNCTION  -nan(ind)     0.00     2.25     0  00:00        0.00
  14035                JUNCTION  -nan(ind)     0.00     0.85     0  00:00        0.00
  14036                JUNCTION  -nan(ind)     0.00     1.10     0  00:00        0.00
  14037                JUNCTION  -nan(ind)     0.00     0.85     0  00:00        0.00
  14039                JUNCTION  -nan(ind)     0.00    66.72     0  00:00        0.00
  14040                JUNCTION  -nan(ind)     0.00     2.97     0  00:00        0.00
  14042                JUNCTION  -nan(ind)     0.00     3.08     0  00:00        0.00
  14043                JUNCTION  -nan(ind)     0.00     3.20     0  00:00        0.00
  14045                JUNCTION  -nan(ind)     0.00     2.44     0  00:00        0.00
  14115                JUNCTION  -nan(ind)     0.00     1.64     0  00:00        0.00
  14116                JUNCTION  -nan(ind)     0.00     1.10     0  00:00        0.00
  14117                JUNCTION  -nan(ind)     0.00     1.10     0  00:00        0.00
  14118                JUNCTION  -nan(ind)     0.00     1.10     0  00:00        0.00
  14119                JUNCTION  -nan(ind)     0.00     0.76     0  00:00        0.00
  14120                JUNCTION  -nan(ind)     0.00     0.23     0  00:00        0.00
  14121                JUNCTION  -nan(ind)     0.00     0.23     0  00:00        0.00
  14122                JUNCTION  -nan(ind)     0.00     0.65     0  00:00        0.00
  14123                JUNCTION  -nan(ind)     0.00     0.21     0  00:00        0.00
  14124                JUNCTION  -nan(ind)     0.00     0.60     0  00:00        0.00
  14125                JUNCTION  -nan(ind)     0.00    -0.24     0  00:00        0.00
  14127                JUNCTION  -nan(ind)     0.00     1.57     0  00:00        0.00
  14128                JUNCTION  -nan(ind)     0.00     0.85     0  00:00        0.00
  14129                JUNCTION  -nan(ind)     0.00     0.94     0  00:00        0.00
  14130                JUNCTION  -nan(ind)     0.00     0.85     0  00:00        0.00
  14131                JUNCTION  -nan(ind)     0.00     1.67     0  00:00        0.00
  14132                JUNCTION  -nan(ind)     0.00     1.84     0  00:00        0.00
  14133                JUNCTION  -nan(ind)     0.00     1.25     0  00:00        0.00
  14140                JUNCTION  -nan(ind)     0.00     0.39     0  00:00        0.00
  14142                JUNCTION  -nan(ind)     0.00     0.60     0  00:00        0.00
  14143                JUNCTION  -nan(ind)     0.00    99.85     0  00:00        0.00
  14144                JUNCTION  -nan(ind)     0.00   102.95     0  00:00        0.00
  14152                JUNCTION  -nan(ind)     0.00     0.60     0  00:00        0.00
  14163                JUNCTION  -nan(ind)     0.00     1.85     0  00:00        0.00
  14164                JUNCTION  -nan(ind)     0.00     1.50     0  00:00        0.00
  14177                JUNCTION  -nan(ind)     0.00     6.85     0  00:00        0.00
  14232                JUNCTION  -nan(ind)     0.00     3.21     0  00:00        0.00
  14234                JUNCTION  -nan(ind)     0.00     1.60     0  00:00        0.00
  14235                JUNCTION  -nan(ind)     0.00     5.50     0  00:00        0.00
  14983                JUNCTION  -nan(ind)     0.00     1.10     0  00:00        0.00
  15041                JUNCTION  -nan(ind)     0.00     0.45     0  00:00        0.00
  15068                JUNCTION  -nan(ind)     0.00     0.90     0  00:00        0.00
  15451                JUNCTION  -nan(ind)     0.00     0.35     0  00:00        0.00
  15453                JUNCTION  -nan(ind)     0.00     0.60     0  00:00        0.00
  15462                JUNCTION  -nan(ind)     0.00     1.44     0  00:00        0.00
  15469                JUNCTION  -nan(ind)     0.00     1.33     0  00:00        0.00
  15470                JUNCTION  -nan(ind)     0.00     0.60     0  00:00        0.00
  15472                JUNCTION  -nan(ind)     0.00     1.09     0  00:00        0.00
  15475                JUNCTION  -nan(ind)     0.00     2.10     0  00:00        0.00
  15581                JUNCTION  -nan(ind)     0.00     6.10     0  00:00        0.00
  15601                JUNCTION  -nan(ind)     0.00     3.23     0  00:00        0.00
  15902                JUNCTION  -nan(ind)     0.00     0.70     0  00:00        0.00
  15903                JUNCTION  -nan(ind)     0.00     0.60     0  00:00        0.00
  16024_1              JUNCTION  -nan(ind)     0.00     3.35     0  00:00        0.00
  16024_11             JUNCTION  -nan(ind)     0.00     1.35     0  00:00        0.00
  16024_12             JUNCTION  -nan(ind)     0.00    19.00     0  00:00        0.00
  16103                JUNCTION  -nan(ind)     0.00     1.51     0  00:00        0.00
  16121                JUNCTION  -nan(ind)     0.00     1.60     0  00:00        0.00
  16122                JUNCTION  -nan(ind)     0.00     1.28     0  00:00        0.00
  16141                JUNCTION  -nan(ind)     0.00     0.85     0  00:00        0.00
  16212                JUNCTION  -nan(ind)     0.00     1.60     0  00:00        0.00
  16213                JUNCTION  -nan(ind)     0.00     1.85     0  00:00        0.00
  16541                JUNCTION  -nan(ind)     0.00    -1.83     0  00:00        0.00
  16621                JUNCTION  -nan(ind)     0.00     1.33     0  00:00        0.00
  16622                JUNCTION  -nan(ind)     0.00     2.40     0  00:00        0.00
  17203                JUNCTION  -nan(ind)     0.00     1.08     0  00:00        0.00
  17204                JUNCTION  -nan(ind)     0.00     1.01     0  00:00        0.00
  17207                JUNCTION  -nan(ind)     0.00     0.66     0  00:00        0.00
  17209                JUNCTION  -nan(ind)     0.00     0.86     0  00:00        0.00
  17223                JUNCTION  -nan(ind)     0.00     1.07     0  00:00        0.00
  17224                JUNCTION  -nan(ind)     0.00     1.04     0  00:00        0.00
  17227                JUNCTION  -nan(ind)     0.00     1.35     0  00:00        0.00
  17228                JUNCTION  -nan(ind)     0.00     0.71     0  00:00        0.00
  17443                JUNCTION  -nan(ind)     0.00     4.60     0  00:00        0.00
  17448                JUNCTION  -nan(ind)     0.00     4.60     0  00:00        0.00
  17451                JUNCTION  -nan(ind)     0.00     4.86     0  00:00        0.00
  17569                JUNCTION  -nan(ind)     0.00    -2.55     0  00:00        0.00
  17805                JUNCTION  -nan(ind)     0.00     0.76     0  00:00        0.00
  17806                JUNCTION  -nan(ind)     0.00     0.60     0  00:00        0.00
  17846                JUNCTION  -nan(ind)     0.00     1.06     0  00:00        0.00
  17861                JUNCTION  -nan(ind)     0.00     1.16     0  00:00        0.00
  17901                JUNCTION  -nan(ind)     0.00     0.80     0  00:00        0.00
  17902                JUNCTION  -nan(ind)     0.00     0.60     0  00:00        0.00
  17903                JUNCTION  -nan(ind)     0.00    -1.25     0  00:00        0.00
  17904                JUNCTION  -nan(ind)     0.00    -1.15     0  00:00        0.00
  17905                JUNCTION  -nan(ind)     0.00    -1.00     0  00:00        0.00
  17906                JUNCTION  -nan(ind)     0.00    -0.80     0  00:00        0.00
  17907                JUNCTION  -nan(ind)     0.00    -0.59     0  00:00        0.00
  18013                JUNCTION  -nan(ind)     0.00     9.59     0  00:00        0.00
  18014                JUNCTION  -nan(ind)     0.00    36.41     0  00:00        0.00
  18016                JUNCTION  -nan(ind)     0.00    29.16     0  00:00        0.00
  18042                JUNCTION  -nan(ind)     0.00     0.84     0  00:00        0.00
  18043                JUNCTION  -nan(ind)     0.00     2.14     0  00:00        0.00
  18044                JUNCTION  -nan(ind)     0.00     2.28     0  00:00        0.00
  18045                JUNCTION  -nan(ind)     0.00    -0.90     0  00:00        0.00
  18046                JUNCTION  -nan(ind)     0.00     2.85     0  00:00        0.00
  18047                JUNCTION  -nan(ind)     0.00     2.85     0  00:00        0.00
  18055                JUNCTION  -nan(ind)     0.00     0.96     0  00:00        0.00
  18056                JUNCTION  -nan(ind)     0.00     0.49     0  00:00        0.00
  18058                JUNCTION  -nan(ind)     0.00     0.25     0  00:00        0.00
  18060                JUNCTION  -nan(ind)     0.00     1.35     0  00:00        0.00
  18062                JUNCTION  -nan(ind)     0.00     0.78     0  00:00        0.00
  18065                JUNCTION  -nan(ind)     0.00     0.48     0  00:00        0.00
  18068                JUNCTION  -nan(ind)     0.00     0.54     0  00:00        0.00
  18069                JUNCTION  -nan(ind)     0.00     0.48     0  00:00        0.00
  18071                JUNCTION  -nan(ind)     0.00     0.95     0  00:00        0.00
  18073                JUNCTION  -nan(ind)     0.00     0.60     0  00:00        0.00
  18077                JUNCTION  -nan(ind)     0.00     0.56     0  00:00        0.00
  18078                JUNCTION  -nan(ind)     0.00     0.69     0  00:00        0.00
  18082                JUNCTION  -nan(ind)     0.00     0.76     0  00:00        0.00
  18083                JUNCTION  -nan(ind)     0.00     0.45     0  00:00        0.00
  18084                JUNCTION  -nan(ind)     0.00    -0.90     0  00:00        0.00
  18086                JUNCTION  -nan(ind)     0.00    -0.63     0  00:00        0.00
  18087                JUNCTION  -nan(ind)     0.00     0.51     0  00:00        0.00
  18089                JUNCTION  -nan(ind)     0.00     0.55     0  00:00        0.00
  18091                JUNCTION  -nan(ind)     0.00     0.86     0  00:00        0.00
  18363                JUNCTION  -nan(ind)     0.00    -0.64     0  00:00        0.00
  18390                JUNCTION  -nan(ind)     0.00     2.25     0  00:00        0.00
  18393                JUNCTION  -nan(ind)     0.00     2.45     0  00:00        0.00
  18394                JUNCTION  -nan(ind)     0.00     2.65     0  00:00        0.00
  18402                JUNCTION  -nan(ind)     0.00     0.51     0  00:00        0.00
  18404                JUNCTION  -nan(ind)     0.00     0.54     0  00:00        0.00
  18405                JUNCTION  -nan(ind)     0.00     0.95     0  00:00        0.00
  18406                JUNCTION  -nan(ind)     0.00     1.35     0  00:00        0.00
  18407                JUNCTION  -nan(ind)     0.00     0.96     0  00:00        0.00
  18424                JUNCTION  -nan(ind)     0.00     0.70     0  00:00        0.00
  18941                JUNCTION  -nan(ind)     0.00     1.29     0  00:00        0.00
  18942                JUNCTION  -nan(ind)     0.00     0.00     0  00:00        0.00
  18990                JUNCTION  -nan(ind)     0.00    67.48     0  00:00        0.00
  18991                JUNCTION  -nan(ind)     0.00    65.34     0  00:00        0.00
  18992                JUNCTION  -nan(ind)     0.00    65.58     0  00:00        0.00
  18993                JUNCTION  -nan(ind)     0.00    65.77     0  00:00        0.00
  18995                JUNCTION  -nan(ind)     0.00    65.96     0  00:00        0.00
  18996                JUNCTION  -nan(ind)     0.00    66.19     0  00:00        0.00
  19002                JUNCTION  -nan(ind)     0.00    66.94     0  00:00        0.00
  19003                JUNCTION  -nan(ind)     0.00    70.27     0  00:00        0.00
  19016                JUNCTION  -nan(ind)     0.00    77.28     0  00:00        0.00
  19017                JUNCTION  -nan(ind)     0.00    77.78     0  00:00        0.00
  19019                JUNCTION  -nan(ind)     0.00    78.77     0  00:00        0.00
  19020                JUNCTION  -nan(ind)     0.00    80.02     0  00:00        0.00
  19021                JUNCTION  -nan(ind)     0.00    81.07     0  00:00        0.00
  19022                JUNCTION  -nan(ind)     0.00    81.15     0  00:00        0.00
  19044                JUNCTION  -nan(ind)     0.00     0.39     0  00:00        0.00
  19048                JUNCTION  -nan(ind)     0.00     2.85     0  00:00        0.00
  19053                JUNCTION  -nan(ind)     0.00    -0.90     0  00:00        0.00
  19055                JUNCTION  -nan(ind)     0.00     0.60     0  00:00        0.00
  19057                JUNCTION  -nan(ind)     0.00     0.60     0  00:00        0.00
  19063                JUNCTION  -nan(ind)     0.00     0.35     0  00:00        0.00
  19066                JUNCTION  -nan(ind)     0.00     0.60     0  00:00        0.00
  19067                JUNCTION  -nan(ind)     0.00     0.68     0  00:00        0.00
  19082                JUNCTION  -nan(ind)     0.00     0.60     0  00:00        0.00
  19084                JUNCTION  -nan(ind)     0.00     0.60     0  00:00        0.00
  19088                JUNCTION  -nan(ind)     0.00     1.10     0  00:00        0.00
  19090                JUNCTION  -nan(ind)     0.00     1.10     0  00:00        0.00
  19093                JUNCTION  -nan(ind)     0.00     0.12     0  00:00        0.00
  19098                JUNCTION  -nan(ind)     0.00    -0.40     0  00:00        0.00
  19101                JUNCTION  -nan(ind)     0.00    -0.63     0  00:00        0.00
  19122                JUNCTION  -nan(ind)     0.00    -0.90     0  00:00        0.00
  19123                JUNCTION  -nan(ind)     0.00    -0.30     0  00:00        0.00
  19128                JUNCTION  -nan(ind)     0.00    -0.90     0  00:00        0.00
  19133                JUNCTION  -nan(ind)     0.00     1.75     0  00:00        0.00
  19245                JUNCTION  -nan(ind)     0.00     1.75     0  00:00        0.00
  19461                JUNCTION  -nan(ind)     0.00     2.92     0  00:00        0.00
  19462                JUNCTION  -nan(ind)     0.00     3.60     0  00:00        0.00
  19463                JUNCTION  -nan(ind)     0.00     2.75     0  00:00        0.00
  19464                JUNCTION  -nan(ind)     0.00     2.10     0  00:00        0.00
  19465                JUNCTION  -nan(ind)     0.00     1.60     0  00:00        0.00
  19466                JUNCTION  -nan(ind)     0.00    -1.15     0  00:00        0.00
  19467                JUNCTION  -nan(ind)     0.00     1.60     0  00:00        0.00
  19468                JUNCTION  -nan(ind)     0.00     1.60     0  00:00        0.00
  19469                JUNCTION  -nan(ind)     0.00     0.35     0  00:00        0.00
  19470                JUNCTION  -nan(ind)     0.00     0.35     0  00:00        0.00
  19473                JUNCTION  -nan(ind)     0.00    -0.20     0  00:00        0.00
  19475                JUNCTION  -nan(ind)     0.00     1.37     0  00:00        0.00
  19477                JUNCTION  -nan(ind)     0.00     1.51     0  00:00        0.00
  19478                JUNCTION  -nan(ind)     0.00     1.89     0  00:00        0.00
  19483                JUNCTION  -nan(ind)     0.00     0.85     0  00:00        0.00
  19484                JUNCTION  -nan(ind)     0.00     0.85     0  00:00        0.00
  19486                JUNCTION  -nan(ind)     0.00     0.85     0  00:00        0.00
  19487                JUNCTION  -nan(ind)     0.00     0.85     0  00:00        0.00
  19490                JUNCTION  -nan(ind)     0.00     1.47     0  00:00        0.00
  19491                JUNCTION  -nan(ind)     0.00     1.34     0  00:00        0.00
  19492                JUNCTION  -nan(ind)     0.00     2.01     0  00:00        0.00
  19493                JUNCTION  -nan(ind)     0.00     1.43     0  00:00        0.00
  19494                JUNCTION  -nan(ind)     0.00     0.35     0  00:00        0.00
  19495                JUNCTION  -nan(ind)     0.00     0.55     0  00:00        0.00
  19496                JUNCTION  -nan(ind)     0.00     1.35     0  00:00        0.00
  19498                JUNCTION  -nan(ind)     0.00     0.35     0  00:00        0.00
  19499                JUNCTION  -nan(ind)     0.00     0.80     0  00:00        0.00
  19500                JUNCTION  -nan(ind)     0.00     0.75     0  00:00        0.00
  19502                JUNCTION  -nan(ind)     0.00     1.85     0  00:00        0.00
  19514                JUNCTION  -nan(ind)     0.00     4.60     0  00:00        0.00
  19515                JUNCTION  -nan(ind)     0.00     4.95     0  00:00        0.00
  19517                JUNCTION  -nan(ind)     0.00     0.85     0  00:00        0.00
  19518                JUNCTION  -nan(ind)     0.00     0.85     0  00:00        0.00
  19520                JUNCTION  -nan(ind)     0.00   142.87     0  00:00        0.00
  19521                JUNCTION  -nan(ind)     0.00   142.70     0  00:00        0.00
  19523                JUNCTION  -nan(ind)     0.00     2.30     0  00:00        0.00
  19524                JUNCTION  -nan(ind)     0.00     1.03     0  00:00        0.00
  19525                JUNCTION  -nan(ind)     0.00     0.61     0  00:00        0.00
  19526                JUNCTION  -nan(ind)     0.00     0.77     0  00:00        0.00
  19527                JUNCTION  -nan(ind)     0.00     0.40     0  00:00        0.00
  19528                JUNCTION  -nan(ind)     0.00     2.32     0  00:00        0.00
  19529                JUNCTION  -nan(ind)     0.00     6.31     0  00:00        0.00
  19530                JUNCTION  -nan(ind)     0.00     1.79     0  00:00        0.00
  19531                JUNCTION  -nan(ind)     0.00     2.44     0  00:00        0.00
  19532                JUNCTION  -nan(ind)     0.00     1.97     0  00:00        0.00
  19533                JUNCTION  -nan(ind)     0.00     1.15     0  00:00        0.00
  19534                JUNCTION  -nan(ind)     0.00     1.86     0  00:00        0.00
  19535                JUNCTION  -nan(ind)     0.00     0.32     0  00:00        0.00
  19536                JUNCTION  -nan(ind)     0.00     6.71     0  00:00        0.00
  19537                JUNCTION  -nan(ind)     0.00     6.76     0  00:00        0.00
  19541                JUNCTION  -nan(ind)     0.00     0.35     0  00:00        0.00
  19560                JUNCTION  -nan(ind)     0.00     1.28     0  00:00        0.00
  19561                JUNCTION  -nan(ind)     0.00     0.98     0  00:00        0.00
  19562                JUNCTION  -nan(ind)     0.00     4.42     0  00:00        0.00
  19563                JUNCTION  -nan(ind)     0.00     2.11     0  00:00        0.00
  19564                JUNCTION  -nan(ind)     0.00     4.70     0  00:00        0.00
  19565                JUNCTION  -nan(ind)     0.00     4.60     0  00:00        0.00
  19566                JUNCTION  -nan(ind)     0.00     1.60     0  00:00        0.00
  19567                JUNCTION  -nan(ind)     0.00     7.27     0  00:00        0.00
  19568                JUNCTION  -nan(ind)     0.00     8.29     0  00:00        0.00
  19569                JUNCTION  -nan(ind)     0.00     7.05     0  00:00        0.00
  19570                JUNCTION  -nan(ind)     0.00     0.28     0  00:00        0.00
  19571                JUNCTION  -nan(ind)     0.00     0.23     0  00:00        0.00
  19572                JUNCTION  -nan(ind)     0.00     1.03     0  00:00        0.00
  19573                JUNCTION  -nan(ind)     0.00     0.85     0  00:00        0.00
  19574                JUNCTION  -nan(ind)     0.00     1.02     0  00:00        0.00
  19575                JUNCTION  -nan(ind)     0.00    -0.90     0  00:00        0.00
  19576                JUNCTION  -nan(ind)     0.00    -0.90     0  00:00        0.00
  19603                JUNCTION  -nan(ind)     0.00     8.30     0  00:00        0.00
  19605                JUNCTION  -nan(ind)     0.00    29.78     0  00:00        0.00
  19606                JUNCTION  -nan(ind)     0.00     2.10     0  00:00        0.00
  19607                JUNCTION  -nan(ind)     0.00     2.10     0  00:00        0.00
  19608                JUNCTION  -nan(ind)     0.00    10.19     0  00:00        0.00
  19609                JUNCTION  -nan(ind)     0.00     8.35     0  00:00        0.00
  19610                JUNCTION  -nan(ind)     0.00     9.35     0  00:00        0.00
  19611                JUNCTION  -nan(ind)     0.00     9.55     0  00:00        0.00
  19612                JUNCTION  -nan(ind)     0.00     1.60     0  00:00        0.00
  19613                JUNCTION  -nan(ind)     0.00     2.35     0  00:00        0.00
  19614                JUNCTION  -nan(ind)     0.00     2.29     0  00:00        0.00
  19615                JUNCTION  -nan(ind)     0.00     0.82     0  00:00        0.00
  19621                JUNCTION  -nan(ind)     0.00    -0.03     0  00:00        0.00
  19623                JUNCTION  -nan(ind)     0.00     0.60     0  00:00        0.00
  19624                JUNCTION  -nan(ind)     0.00     1.46     0  00:00        0.00
  19625                JUNCTION  -nan(ind)     0.00     0.35     0  00:00        0.00
  19626                JUNCTION  -nan(ind)     0.00     1.04     0  00:00        0.00
  19627                JUNCTION  -nan(ind)     0.00     1.38     0  00:00        0.00
  19628                JUNCTION  -nan(ind)     0.00    -1.15     0  00:00        0.00
  19629                JUNCTION  -nan(ind)     0.00     1.28     0  00:00        0.00
  19630                JUNCTION  -nan(ind)     0.00     1.16     0  00:00        0.00
  19631                JUNCTION  -nan(ind)     0.00     0.91     0  00:00        0.00
  19633                JUNCTION  -nan(ind)     0.00     1.10     0  00:00        0.00
  19641                JUNCTION  -nan(ind)     0.00   103.45     0  00:00        0.00
  19759                JUNCTION  -nan(ind)     0.00     1.36     0  00:00        0.00
  19760                JUNCTION  -nan(ind)     0.00     1.56     0  00:00        0.00
  19761                JUNCTION  -nan(ind)     0.00     1.60     0  00:00        0.00
  19762                JUNCTION  -nan(ind)     0.00     1.60     0  00:00        0.00
  19780                JUNCTION  -nan(ind)     0.00     0.60     0  00:00        0.00
  19792                JUNCTION  -nan(ind)     0.00     0.39     0  00:00        0.00
  19793                JUNCTION  -nan(ind)     0.00     1.37     0  00:00        0.00
  19801                JUNCTION  -nan(ind)     0.00     0.60     0  00:00        0.00
  19802                JUNCTION  -nan(ind)     0.00     0.60     0  00:00        0.00
  19806                JUNCTION  -nan(ind)     0.00     1.42     0  00:00        0.00
  19809                JUNCTION  -nan(ind)     0.00     1.10     0  00:00        0.00
  19811                JUNCTION  -nan(ind)     0.00     2.35     0  00:00        0.00
  19814                JUNCTION  -nan(ind)     0.00     1.60     0  00:00        0.00
  19815                JUNCTION  -nan(ind)     0.00     1.60     0  00:00        0.00
  20761                JUNCTION  -nan(ind)     0.00     9.00     0  00:00        0.00
  21063_1              JUNCTION  -nan(ind)     0.00     1.00     0  00:00        0.00
  21063_11             JUNCTION  -nan(ind)     0.00     1.00     0  00:00        0.00
  21201                JUNCTION  -nan(ind)     0.00     3.41     0  00:00        0.00
  21202                JUNCTION  -nan(ind)     0.00     3.35     0  00:00        0.00
  21204                JUNCTION  -nan(ind)     0.00     3.35     0  00:00        0.00
  21241                JUNCTION  -nan(ind)     0.00     4.33     0  00:00        0.00
  21242                JUNCTION  -nan(ind)     0.00     2.60     0  00:00        0.00
  21243                JUNCTION  -nan(ind)     0.00     2.60     0  00:00        0.00
  21245                JUNCTION  -nan(ind)     0.00     0.74     0  00:00        0.00
  21545                JUNCTION  -nan(ind)     0.00     1.63     0  00:00        0.00
  21685                JUNCTION  -nan(ind)     0.00     1.48     0  00:00        0.00
  21688                JUNCTION  -nan(ind)     0.00     1.60     0  00:00        0.00
  22443                JUNCTION  -nan(ind)     0.00     0.84     0  00:00        0.00
  22562                JUNCTION  -nan(ind)     0.00   123.08     0  00:00        0.00
  22570                JUNCTION  -nan(ind)     0.00    18.11     0  00:00        0.00
  2262                 JUNCTION  -nan(ind)     0.00     1.35     0  00:00        0.00
  22677                JUNCTION  -nan(ind)     0.00    -0.02     0  00:00        0.00
  2272                 JUNCTION  -nan(ind)     0.00     3.52     0  00:00        0.00
  2276                 JUNCTION  -nan(ind)     0.00     3.02     0  00:00        0.00
  2280                 JUNCTION  -nan(ind)     0.00     1.27     0  00:00        0.00
  2299                 JUNCTION  -nan(ind)     0.00     1.10     0  00:00        0.00
  2302                 JUNCTION  -nan(ind)     0.00     0.85     0  00:00        0.00
  2321                 JUNCTION  -nan(ind)     0.00     1.30     0  00:00        0.00
  23211                JUNCTION  -nan(ind)     0.00     0.17     0  00:00        0.00
  23212                JUNCTION  -nan(ind)     0.00     1.35     0  00:00        0.00
  23213                JUNCTION  -nan(ind)     0.00     0.50     0  00:00        0.00
  23214                JUNCTION  -nan(ind)     0.00     0.18     0  00:00        0.00
  23215                JUNCTION  -nan(ind)     0.00     1.35     0  00:00        0.00
  23217                JUNCTION  -nan(ind)     0.00     1.34     0  00:00        0.00
  2324                 JUNCTION  -nan(ind)     0.00    12.69     0  00:00        0.00
  2332                 JUNCTION  -nan(ind)     0.00    17.07     0  00:00        0.00
  23321                JUNCTION  -nan(ind)     0.00     0.85     0  00:00        0.00
  2343                 JUNCTION  -nan(ind)     0.00     1.66     0  00:00        0.00
  2347                 JUNCTION  -nan(ind)     0.00     1.60     0  00:00        0.00
  23506                JUNCTION  -nan(ind)     0.00     2.10     0  00:00        0.00
  2356                 JUNCTION  -nan(ind)     0.00     5.91     0  00:00        0.00
  2360                 JUNCTION  -nan(ind)     0.00     1.59     0  00:00        0.00
  2361                 JUNCTION  -nan(ind)     0.00     2.35     0  00:00        0.00
  2364                 JUNCTION  -nan(ind)     0.00     1.80     0  00:00        0.00
  23648                JUNCTION  -nan(ind)     0.00    -0.90     0  00:00        0.00
  23656                JUNCTION  -nan(ind)     0.00    -0.90     0  00:00        0.00
  23712                JUNCTION  -nan(ind)     0.00    20.20     0  00:00        0.00
  2372                 JUNCTION  -nan(ind)     0.00     1.10     0  00:00        0.00
  23735                JUNCTION  -nan(ind)     0.00    19.73     0  00:00        0.00
  23736                JUNCTION  -nan(ind)     0.00     4.77     0  00:00        0.00
  23737                JUNCTION  -nan(ind)     0.00     1.37     0  00:00        0.00
  23738                JUNCTION  -nan(ind)     0.00     1.12     0  00:00        0.00
  23739                JUNCTION  -nan(ind)     0.00     0.48     0  00:00        0.00
  23740                JUNCTION  -nan(ind)     0.00     0.74     0  00:00        0.00
  23741                JUNCTION  -nan(ind)     0.00     0.32     0  00:00        0.00
  23745                JUNCTION  -nan(ind)     0.00     2.80     0  00:00        0.00
  23747                JUNCTION  -nan(ind)     0.00    28.58     0  00:00        0.00
  23768                JUNCTION  -nan(ind)     0.00    28.87     0  00:00        0.00
  2378                 JUNCTION  -nan(ind)     0.00     1.20     0  00:00        0.00
  23860                JUNCTION  -nan(ind)     0.00     1.10     0  00:00        0.00
  23862                JUNCTION  -nan(ind)     0.00     1.14     0  00:00        0.00
  2393                 JUNCTION  -nan(ind)     0.00     3.59     0  00:00        0.00
  2397                 JUNCTION  -nan(ind)     0.00     0.60     0  00:00        0.00
  2400                 JUNCTION  -nan(ind)     0.00     4.57     0  00:00        0.00
  2403                 JUNCTION  -nan(ind)     0.00     1.10     0  00:00        0.00
  2404                 JUNCTION  -nan(ind)     0.00    -0.40     0  00:00        0.00
  24210                JUNCTION  -nan(ind)     0.00    91.83     0  00:00        0.00
  24211                JUNCTION  -nan(ind)     0.00    92.93     0  00:00        0.00
  2427                 JUNCTION  -nan(ind)     0.00     1.85     0  00:00        0.00
  2430                 JUNCTION  -nan(ind)     0.00     0.11     0  00:00        0.00
  2431                 JUNCTION  -nan(ind)     0.00    -1.09     0  00:00        0.00
  2432                 JUNCTION  -nan(ind)     0.00     0.85     0  00:00        0.00
  2434                 JUNCTION  -nan(ind)     0.00     2.09     0  00:00        0.00
  2436                 JUNCTION  -nan(ind)     0.00    -0.90     0  00:00        0.00
  2442                 JUNCTION  -nan(ind)     0.00     1.60     0  00:00        0.00
  2443                 JUNCTION  -nan(ind)     0.00     2.97     0  00:00        0.00
  2449                 JUNCTION  -nan(ind)     0.00     9.03     0  00:00        0.00
  2452                 JUNCTION  -nan(ind)     0.00     0.85     0  00:00        0.00
  2453                 JUNCTION  -nan(ind)     0.00     0.72     0  00:00        0.00
  2471                 JUNCTION  -nan(ind)     0.00     1.10     0  00:00        0.00
  2475                 JUNCTION  -nan(ind)     0.00     0.24     0  00:00        0.00
  2476                 JUNCTION  -nan(ind)     0.00     0.90     0  00:00        0.00
  2477                 JUNCTION  -nan(ind)     0.00     0.95     0  00:00        0.00
  2479                 JUNCTION  -nan(ind)     0.00     1.10     0  00:00        0.00
  2480                 JUNCTION  -nan(ind)     0.00     0.60     0  00:00        0.00
  2494                 JUNCTION  -nan(ind)     0.00     0.14     0  00:00        0.00
  2496                 JUNCTION  -nan(ind)     0.00     0.60     0  00:00        0.00
  2497                 JUNCTION  -nan(ind)     0.00     0.60     0  00:00        0.00
  2498                 JUNCTION  -nan(ind)     0.00     0.60     0  00:00        0.00
  2499                 JUNCTION  -nan(ind)     0.00     1.23     0  00:00        0.00
  2512                 JUNCTION  -nan(ind)     0.00     0.95     0  00:00        0.00
  2518                 JUNCTION  -nan(ind)     0.00     2.43     0  00:00        0.00
  2519                 JUNCTION  -nan(ind)     0.00     2.39     0  00:00        0.00
  2520                 JUNCTION  -nan(ind)     0.00     3.09     0  00:00        0.00
  2521                 JUNCTION  -nan(ind)     0.00     3.11     0  00:00        0.00
  2523                 JUNCTION  -nan(ind)     0.00     2.92     0  00:00        0.00
  2524                 JUNCTION  -nan(ind)     0.00     1.10     0  00:00        0.00
  2530                 JUNCTION  -nan(ind)     0.00     1.52     0  00:00        0.00
  2531                 JUNCTION  -nan(ind)     0.00     1.60     0  00:00        0.00
  2532                 JUNCTION  -nan(ind)     0.00     1.60     0  00:00        0.00
[...]
  8691                    1.31   -nan(ind)  -nan(ind)  -nan(ind)  -nan(ind)  -nan(ind)  -nan(ind)  -nan(ind)  -nan(ind)  -nan(ind)
  8700                    1.00   -nan(ind)  -nan(ind)  -nan(ind)  -nan(ind)  -nan(ind)  -nan(ind)  -nan(ind)  -nan(ind)  -nan(ind)
  8701                    1.84   -nan(ind)  -nan(ind)  -nan(ind)  -nan(ind)  -nan(ind)  -nan(ind)  -nan(ind)  -nan(ind)  -nan(ind)
  8702                    1.44   -nan(ind)  -nan(ind)  -nan(ind)  -nan(ind)  -nan(ind)  -nan(ind)  -nan(ind)  -nan(ind)  -nan(ind)
  8703                    3.56   -nan(ind)  -nan(ind)  -nan(ind)  -nan(ind)  -nan(ind)  -nan(ind)  -nan(ind)  -nan(ind)  -nan(ind)
  8704                    4.34   -nan(ind)  -nan(ind)  -nan(ind)  -nan(ind)  -nan(ind)  -nan(ind)  -nan(ind)  -nan(ind)  -nan(ind)
  8705                    5.42   -nan(ind)  -nan(ind)  -nan(ind)  -nan(ind)  -nan(ind)  -nan(ind)  -nan(ind)  -nan(ind)  -nan(ind)
  8706                    1.00   -nan(ind)  -nan(ind)  -nan(ind)  -nan(ind)  -nan(ind)  -nan(ind)  -nan(ind)  -nan(ind)  -nan(ind)
  8713                    1.24   -nan(ind)  -nan(ind)  -nan(ind)  -nan(ind)  -nan(ind)  -nan(ind)  -nan(ind)  -nan(ind)  -nan(ind)
  8716                    1.71   -nan(ind)  -nan(ind)  -nan(ind)  -nan(ind)  -nan(ind)  -nan(ind)  -nan(ind)  -nan(ind)  -nan(ind)
  8717                    1.00   -nan(ind)  -nan(ind)  -nan(ind)  -nan(ind)  -nan(ind)  -nan(ind)  -nan(ind)  -nan(ind)  -nan(ind)
  8718                    1.00   -nan(ind)  -nan(ind)  -nan(ind)  -nan(ind)  -nan(ind)  -nan(ind)  -nan(ind)  -nan(ind)  -nan(ind)
  8719                    1.00   -nan(ind)  -nan(ind)  -nan(ind)  -nan(ind)  -nan(ind)  -nan(ind)  -nan(ind)  -nan(ind)  -nan(ind)
  8833                    1.12   -nan(ind)  -nan(ind)  -nan(ind)  -nan(ind)  -nan(ind)  -nan(ind)  -nan(ind)  -nan(ind)  -nan(ind)
  8834                    1.00   -nan(ind)  -nan(ind)  -nan(ind)  -nan(ind)  -nan(ind)  -nan(ind)  -nan(ind)  -nan(ind)  -nan(ind)
  8838                    1.00   -nan(ind)  -nan(ind)  -nan(ind)  -nan(ind)  -nan(ind)  -nan(ind)  -nan(ind)  -nan(ind)  -nan(ind)
  8843                    3.10   -nan(ind)  -nan(ind)  -nan(ind)  -nan(ind)  -nan(ind)  -nan(ind)  -nan(ind)  -nan(ind)  -nan(ind)
  8844                    1.00   -nan(ind)  -nan(ind)  -nan(ind)  -nan(ind)  -nan(ind)  -nan(ind)  -nan(ind)  -nan(ind)  -nan(ind)
  8845                   15.62   -nan(ind)  -nan(ind)  -nan(ind)  -nan(ind)  -nan(ind)  -nan(ind)  -nan(ind)  -nan(ind)  -nan(ind)
  8846                    1.00   -nan(ind)  -nan(ind)  -nan(ind)  -nan(ind)  -nan(ind)  -nan(ind)  -nan(ind)  -nan(ind)  -nan(ind)
  8847                    1.00   -nan(ind)  -nan(ind)  -nan(ind)  -nan(ind)  -nan(ind)  -nan(ind)  -nan(ind)  -nan(ind)  -nan(ind)
  9017                    1.00   -nan(ind)  -nan(ind)  -nan(ind)  -nan(ind)  -nan(ind)  -nan(ind)  -nan(ind)  -nan(ind)  -nan(ind)
  9018                    1.43   -nan(ind)  -nan(ind)  -nan(ind)  -nan(ind)  -nan(ind)  -nan(ind)  -nan(ind)  -nan(ind)  -nan(ind)
  9019                    1.00   -nan(ind)  -nan(ind)  -nan(ind)  -nan(ind)  -nan(ind)  -nan(ind)  -nan(ind)  -nan(ind)  -nan(ind)
  9064                    1.00   -nan(ind)  -nan(ind)  -nan(ind)  -nan(ind)  -nan(ind)  -nan(ind)  -nan(ind)  -nan(ind)  -nan(ind)
  9068                    1.08   -nan(ind)  -nan(ind)  -nan(ind)  -nan(ind)  -nan(ind)  -nan(ind)  -nan(ind)  -nan(ind)  -nan(ind)
  9085                    1.00   -nan(ind)  -nan(ind)  -nan(ind)  -nan(ind)  -nan(ind)  -nan(ind)  -nan(ind)  -nan(ind)  -nan(ind)
  9222                    2.72   -nan(ind)  -nan(ind)  -nan(ind)  -nan(ind)  -nan(ind)  -nan(ind)  -nan(ind)  -nan(ind)  -nan(ind)
  935                     1.00   -nan(ind)  -nan(ind)  -nan(ind)  -nan(ind)  -nan(ind)  -nan(ind)  -nan(ind)  -nan(ind)  -nan(ind)
  936                     2.61   -nan(ind)  -nan(ind)  -nan(ind)  -nan(ind)  -nan(ind)  -nan(ind)  -nan(ind)  -nan(ind)  -nan(ind)
  9397                    1.00   -nan(ind)  -nan(ind)  -nan(ind)  -nan(ind)  -nan(ind)  -nan(ind)  -nan(ind)  -nan(ind)  -nan(ind)
  9398                    1.00   -nan(ind)  -nan(ind)  -nan(ind)  -nan(ind)  -nan(ind)  -nan(ind)  -nan(ind)  -nan(ind)  -nan(ind)
  9399                    1.00   -nan(ind)  -nan(ind)  -nan(ind)  -nan(ind)  -nan(ind)  -nan(ind)  -nan(ind)  -nan(ind)  -nan(ind)
  9400                    1.00   -nan(ind)  -nan(ind)  -nan(ind)  -nan(ind)  -nan(ind)  -nan(ind)  -nan(ind)  -nan(ind)  -nan(ind)
  9401                    1.00   -nan(ind)  -nan(ind)  -nan(ind)  -nan(ind)  -nan(ind)  -nan(ind)  -nan(ind)  -nan(ind)  -nan(ind)
  9402                    1.00   -nan(ind)  -nan(ind)  -nan(ind)  -nan(ind)  -nan(ind)  -nan(ind)  -nan(ind)  -nan(ind)  -nan(ind)
  9403                    1.60   -nan(ind)  -nan(ind)  -nan(ind)  -nan(ind)  -nan(ind)  -nan(ind)  -nan(ind)  -nan(ind)  -nan(ind)
  9433                    1.00   -nan(ind)  -nan(ind)  -nan(ind)  -nan(ind)  -nan(ind)  -nan(ind)  -nan(ind)  -nan(ind)  -nan(ind)
  9434                    4.46   -nan(ind)  -nan(ind)  -nan(ind)  -nan(ind)  -nan(ind)  -nan(ind)  -nan(ind)  -nan(ind)  -nan(ind)
  9435                    4.55   -nan(ind)  -nan(ind)  -nan(ind)  -nan(ind)  -nan(ind)  -nan(ind)  -nan(ind)  -nan(ind)  -nan(ind)
  9446                    1.00   -nan(ind)  -nan(ind)  -nan(ind)  -nan(ind)  -nan(ind)  -nan(ind)  -nan(ind)  -nan(ind)  -nan(ind)
  9447                    1.00   -nan(ind)  -nan(ind)  -nan(ind)  -nan(ind)  -nan(ind)  -nan(ind)  -nan(ind)  -nan(ind)  -nan(ind)
  9535                    3.34   -nan(ind)  -nan(ind)  -nan(ind)  -nan(ind)  -nan(ind)  -nan(ind)  -nan(ind)  -nan(ind)  -nan(ind)
  9536                    1.21   -nan(ind)  -nan(ind)  -nan(ind)  -nan(ind)  -nan(ind)  -nan(ind)  -nan(ind)  -nan(ind)  -nan(ind)
  9537                    1.00   -nan(ind)  -nan(ind)  -nan(ind)  -nan(ind)  -nan(ind)  -nan(ind)  -nan(ind)  -nan(ind)  -nan(ind)
  9542                    2.68   -nan(ind)  -nan(ind)  -nan(ind)  -nan(ind)  -nan(ind)  -nan(ind)  -nan(ind)  -nan(ind)  -nan(ind)
  9543                    1.05   -nan(ind)  -nan(ind)  -nan(ind)  -nan(ind)  -nan(ind)  -nan(ind)  -nan(ind)  -nan(ind)  -nan(ind)
  9544                    1.00   -nan(ind)  -nan(ind)  -nan(ind)  -nan(ind)  -nan(ind)  -nan(ind)  -nan(ind)  -nan(ind)  -nan(ind)
  9545                    1.00   -nan(ind)  -nan(ind)  -nan(ind)  -nan(ind)  -nan(ind)  -nan(ind)  -nan(ind)  -nan(ind)  -nan(ind)
  9546                    1.00   -nan(ind)  -nan(ind)  -nan(ind)  -nan(ind)  -nan(ind)  -nan(ind)  -nan(ind)  -nan(ind)  -nan(ind)
  956                     1.00   -nan(ind)  -nan(ind)  -nan(ind)  -nan(ind)  -nan(ind)  -nan(ind)  -nan(ind)  -nan(ind)  -nan(ind)
  9580                    2.30   -nan(ind)  -nan(ind)  -nan(ind)  -nan(ind)  -nan(ind)  -nan(ind)  -nan(ind)  -nan(ind)  -nan(ind)
  9582                    1.00   -nan(ind)  -nan(ind)  -nan(ind)  -nan(ind)  -nan(ind)  -nan(ind)  -nan(ind)  -nan(ind)  -nan(ind)
  9583                    1.79   -nan(ind)  -nan(ind)  -nan(ind)  -nan(ind)  -nan(ind)  -nan(ind)  -nan(ind)  -nan(ind)  -nan(ind)
  9600                    1.00   -nan(ind)  -nan(ind)  -nan(ind)  -nan(ind)  -nan(ind)  -nan(ind)  -nan(ind)  -nan(ind)  -nan(ind)
  9719                    2.48   -nan(ind)  -nan(ind)  -nan(ind)  -nan(ind)  -nan(ind)  -nan(ind)  -nan(ind)  -nan(ind)  -nan(ind)
  9721                    1.67   -nan(ind)  -nan(ind)  -nan(ind)  -nan(ind)  -nan(ind)  -nan(ind)  -nan(ind)  -nan(ind)  -nan(ind)
  9722                    4.95   -nan(ind)  -nan(ind)  -nan(ind)  -nan(ind)  -nan(ind)  -nan(ind)  -nan(ind)  -nan(ind)  -nan(ind)
  9723                    3.87   -nan(ind)  -nan(ind)  -nan(ind)  -nan(ind)  -nan(ind)  -nan(ind)  -nan(ind)  -nan(ind)  -nan(ind)
  9724                    4.69   -nan(ind)  -nan(ind)  -nan(ind)  -nan(ind)  -nan(ind)  -nan(ind)  -nan(ind)  -nan(ind)  -nan(ind)
  9739                    1.00   -nan(ind)  -nan(ind)  -nan(ind)  -nan(ind)  -nan(ind)  -nan(ind)  -nan(ind)  -nan(ind)  -nan(ind)
  9771                    1.00   -nan(ind)  -nan(ind)  -nan(ind)  -nan(ind)  -nan(ind)  -nan(ind)  -nan(ind)  -nan(ind)  -nan(ind)
  98                      9.03   -nan(ind)  -nan(ind)  -nan(ind)  -nan(ind)  -nan(ind)  -nan(ind)  -nan(ind)  -nan(ind)  -nan(ind)
  9949                    1.83   -nan(ind)  -nan(ind)  -nan(ind)  -nan(ind)  -nan(ind)  -nan(ind)  -nan(ind)  -nan(ind)  -nan(ind)
  9957                    1.15   -nan(ind)  -nan(ind)  -nan(ind)  -nan(ind)  -nan(ind)  -nan(ind)  -nan(ind)  -nan(ind)  -nan(ind)
  9958                    4.25   -nan(ind)  -nan(ind)  -nan(ind)  -nan(ind)  -nan(ind)  -nan(ind)  -nan(ind)  -nan(ind)  -nan(ind)
  9974                    1.00   -nan(ind)  -nan(ind)  -nan(ind)  -nan(ind)  -nan(ind)  -nan(ind)  -nan(ind)  -nan(ind)  -nan(ind)
  9975                    1.20   -nan(ind)  -nan(ind)  -nan(ind)  -nan(ind)  -nan(ind)  -nan(ind)  -nan(ind)  -nan(ind)  -nan(ind)
  9976                    2.38   -nan(ind)  -nan(ind)  -nan(ind)  -nan(ind)  -nan(ind)  -nan(ind)  -nan(ind)  -nan(ind)  -nan(ind)
  998                     1.00   -nan(ind)  -nan(ind)  -nan(ind)  -nan(ind)  -nan(ind)  -nan(ind)  -nan(ind)  -nan(ind)  -nan(ind)
  999                     1.00   -nan(ind)  -nan(ind)  -nan(ind)  -nan(ind)  -nan(ind)  -nan(ind)  -nan(ind)  -nan(ind)  -nan(ind)
  
  
  *************************
  Conduit Surcharge Summary
  *************************
  
  No conduits were surcharged.
  
  
  ***************
  Pumping Summary
  ***************
  
  ---------------------------------------------------------------------------------------------------------
                                                  Min       Avg       Max     Total     Power    % Time Off
                        Percent   Number of      Flow      Flow      Flow    Volume     Usage    Pump Curve
  Pump                 Utilized   Start-Ups       LPS       LPS       LPS  10^6 ltr     Kw-hr    Low   High
  ---------------------------------------------------------------------------------------------------------
  SPS2000              -nan(ind)           0      0.00      0.00      0.00     0.000      0.00    0.0    0.0
  SPS2001              -nan(ind)           0      0.00      0.00      0.00     0.000      0.00    0.0    0.0
  SPS2002              -nan(ind)           0      0.00      0.00      0.00     0.000      0.00    0.0    0.0
  SPS2003              -nan(ind)           0      0.00      0.00      0.00     0.000      0.00    0.0    0.0
  SPS2004              -nan(ind)           0      0.00      0.00      0.00     0.000      0.00    0.0    0.0
  SPS2005              -nan(ind)           0      0.00      0.00      0.00     0.000      0.00    0.0    0.0
  SPS2006              -nan(ind)           0      0.00      0.00      0.00     0.000      0.00    0.0    0.0
  SPS2007              -nan(ind)           0      0.00      0.00      0.00     0.000      0.00    0.0    0.0
  SPS2008              -nan(ind)           0      0.00      0.00      0.00     0.000      0.00    0.0    0.0
  SPS2009              -nan(ind)           0      0.00      0.00      0.00     0.000      0.00    0.0    0.0
  SPS2010              -nan(ind)           0      0.00      0.00      0.00     0.000      0.00    0.0    0.0
  SPS2011              -nan(ind)           0      0.00      0.00      0.00     0.000      0.00    0.0    0.0
  SPS2012              -nan(ind)           0      0.00      0.00      0.00     0.000      0.00    0.0    0.0
  SPS2013              -nan(ind)           0      0.00      0.00      0.00     0.000      0.00    0.0    0.0
  SPS2014              -nan(ind)           0      0.00      0.00      0.00     0.000      0.00    0.0    0.0
  SPS2015              -nan(ind)           0      0.00      0.00      0.00     0.000      0.00    0.0    0.0
  SPS2016              -nan(ind)           0      0.00      0.00      0.00     0.000      0.00    0.0    0.0
  SPS2017              -nan(ind)           0      0.00      0.00      0.00     0.000      0.00    0.0    0.0
  SPS2018              -nan(ind)           0      0.00      0.00      0.00     0.000      0.00    0.0    0.0
  SPS2019              -nan(ind)           0      0.00      0.00      0.00     0.000      0.00    0.0    0.0
  SPS2020              -nan(ind)           0      0.00      0.00      0.00     0.000      0.00    0.0    0.0
  SPS2021              -nan(ind)           0      0.00      0.00      0.00     0.000      0.00    0.0    0.0
  SPS2022              -nan(ind)           0      0.00      0.00      0.00     0.000      0.00    0.0    0.0
  SPS2023              -nan(ind)           0      0.00      0.00      0.00     0.000      0.00    0.0    0.0
  SPS2024              -nan(ind)           0      0.00      0.00      0.00     0.000      0.00    0.0    0.0
  SPS2025              -nan(ind)           0      0.00      0.00      0.00     0.000      0.00    0.0    0.0
  SPS2026              -nan(ind)           0      0.00      0.00      0.00     0.000      0.00    0.0    0.0
  SPS2027              -nan(ind)           0      0.00      0.00      0.00     0.000      0.00    0.0    0.0
  SPS2028              -nan(ind)           0      0.00      0.00      0.00     0.000      0.00    0.0    0.0
  SPS2029              -nan(ind)           0      0.00      0.00      0.00     0.000      0.00    0.0    0.0
  SPS2030              -nan(ind)           0      0.00      0.00      0.00     0.000      0.00    0.0    0.0
  SPS2031              -nan(ind)           0      0.00      0.00      0.00     0.000      0.00    0.0    0.0
  SPS2032              -nan(ind)           0      0.00      0.00      0.00     0.000      0.00    0.0    0.0
  SPS2033_2            -nan(ind)           0      0.00      0.00      0.00     0.000      0.00    0.0    0.0
  SPS2033_3            -nan(ind)           0      0.00      0.00      0.00     0.000      0.00    0.0    0.0
  SPS2034              -nan(ind)           0      0.00      0.00      0.00     0.000      0.00    0.0    0.0
  SPS2035              -nan(ind)           0      0.00      0.00      0.00     0.000      0.00    0.0    0.0
  SPS2036              -nan(ind)           0      0.00      0.00      0.00     0.000      0.00    0.0    0.0
  SPS2037              -nan(ind)           0      0.00      0.00      0.00     0.000      0.00    0.0    0.0
  SPS2038              -nan(ind)           0      0.00      0.00      0.00     0.000      0.00    0.0    0.0
  SPS2039              -nan(ind)           0      0.00      0.00      0.00     0.000      0.00    0.0    0.0
  SPS2040              -nan(ind)           0      0.00      0.00      0.00     0.000      0.00    0.0    0.0
  SPS2041              -nan(ind)           0      0.00      0.00      0.00     0.000      0.00    0.0    0.0
  SPS2042              -nan(ind)           0      0.00      0.00      0.00     0.000      0.00    0.0    0.0
  SPS2043              -nan(ind)           0      0.00      0.00      0.00     0.000      0.00    0.0    0.0
  SPS2044              -nan(ind)           0      0.00      0.00      0.00     0.000      0.00    0.0    0.0
  SPS2045              -nan(ind)           0      0.00      0.00      0.00     0.000      0.00    0.0    0.0
  SPS2046              -nan(ind)           0      0.00      0.00      0.00     0.000      0.00    0.0    0.0
  SPS2047              -nan(ind)           0      0.00      0.00      0.00     0.000      0.00    0.0    0.0
  SPS2048              -nan(ind)           0      0.00      0.00      0.00     0.000      0.00    0.0    0.0
  SPS2050              -nan(ind)           0      0.00      0.00      0.00     0.000      0.00    0.0    0.0
  SPS2053              -nan(ind)           0      0.00      0.00      0.00     0.000      0.00    0.0    0.0
  SPS3001              -nan(ind)           0      0.00      0.00      0.00     0.000      0.00    0.0    0.0
  SPS3002              -nan(ind)           0      0.00      0.00      0.00     0.000      0.00    0.0    0.0
  SPS3003              -nan(ind)           0      0.00      0.00      0.00     0.000      0.00    0.0    0.0
  SPS3004              -nan(ind)           0      0.00      0.00      0.00     0.000      0.00    0.0    0.0
  SPS3005              -nan(ind)           0      0.00      0.00      0.00     0.000      0.00    0.0    0.0
  SPS3006              -nan(ind)           0      0.00      0.00      0.00     0.000      0.00    0.0    0.0
  SPS3007              -nan(ind)           0      0.00      0.00      0.00     0.000      0.00    0.0    0.0
  SPS3008              -nan(ind)           0      0.00      0.00      0.00     0.000      0.00    0.0    0.0
  SPS3009              -nan(ind)           0      0.00      0.00      0.00     0.000      0.00    0.0    0.0
  SPS3010              -nan(ind)           0      0.00      0.00      0.00     0.000      0.00    0.0    0.0
  SPS3011              -nan(ind)           0      0.00      0.00      0.00     0.000      0.00    0.0    0.0
  SPS3012              -nan(ind)           0      0.00      0.00      0.00     0.000      0.00    0.0    0.0
  SPS3013              -nan(ind)           0      0.00      0.00      0.00     0.000      0.00    0.0    0.0
  SPS3015              -nan(ind)           0      0.00      0.00      0.00     0.000      0.00    0.0    0.0
  SPS3016              -nan(ind)           0      0.00      0.00      0.00     0.000      0.00    0.0    0.0
  SPS3017              -nan(ind)           0      0.00      0.00      0.00     0.000      0.00    0.0    0.0
  SPS3018              -nan(ind)           0      0.00      0.00      0.00     0.000      0.00    0.0    0.0
  SPS3019              -nan(ind)           0      0.00      0.00      0.00     0.000      0.00    0.0    0.0
  SPS3020              -nan(ind)           0      0.00      0.00      0.00     0.000      0.00    0.0    0.0
  SPS3021              -nan(ind)           0      0.00      0.00      0.00     0.000      0.00    0.0    0.0
  SPS3022              -nan(ind)           0      0.00      0.00      0.00     0.000      0.00    0.0    0.0
  SPS3023              -nan(ind)           0      0.00      0.00      0.00     0.000      0.00    0.0    0.0
  SPS3024              -nan(ind)           0      0.00      0.00      0.00     0.000      0.00    0.0    0.0
  SPS3025              -nan(ind)           0      0.00      0.00      0.00     0.000      0.00    0.0    0.0
  SPS3026              -nan(ind)           0      0.00      0.00      0.00     0.000      0.00    0.0    0.0
  SPS3027              -nan(ind)           0      0.00      0.00      0.00     0.000      0.00    0.0    0.0
  SPS3028-B            -nan(ind)           0      0.00      0.00      0.00     0.000      0.00    0.0    0.0
  SPS3028-C            -nan(ind)           0      0.00      0.00      0.00     0.000      0.00    0.0    0.0
  SPS3029              -nan(ind)           0      0.00      0.00      0.00     0.000      0.00    0.0    0.0
  SPS3030              -nan(ind)           0      0.00      0.00      0.00     0.000      0.00    0.0    0.0
  SPS3031              -nan(ind)           0      0.00      0.00      0.00     0.000      0.00    0.0    0.0
  SPS3033              -nan(ind)           0      0.00      0.00      0.00     0.000      0.00    0.0    0.0
  SPS3034              -nan(ind)           0      0.00      0.00      0.00     0.000      0.00    0.0    0.0
  SPS3035              -nan(ind)           0      0.00      0.00      0.00     0.000      0.00    0.0    0.0
  SPS3036              -nan(ind)           0      0.00      0.00      0.00     0.000      0.00    0.0    0.0
  SPS3038              -nan(ind)           0      0.00      0.00      0.00     0.000      0.00    0.0    0.0
  SPS3041              -nan(ind)           0      0.00      0.00      0.00     0.000      0.00    0.0    0.0
  SPS3042              -nan(ind)           0      0.00      0.00      0.00     0.000      0.00    0.0    0.0
  

  Analysis begun on:  Sat Nov 30 08:11:37 2019
  Analysis ended on:  Sat Nov 30 08:11:37 2019
  Total elapsed time: < 1 sec