
  EPA STORM WATER MANAGEMENT MODEL - VERSION 5.1 (Build 5.1.013)
  --------------------------------------------------------------

  Flushing gate control scenario 3 
  
  WARNING 04: minimum elevation drop used for Conduit C1
  
  *********************************************************
  NOTE: The summary statistics displayed in this report are
  based on results found at every computational time step,  
  not just on results from each reporting time step.
  *********************************************************
  
  ****************
  Analysis Options
  ****************
  Flow Units ............... CFS
  Process Models:
    Rainfall/Runoff ........ NO
    RDII ................... NO
    Snowmelt ............... NO
    Groundwater ............ NO
    Flow Routing ........... YES
    Ponding Allowed ........ NO
    Water Quality .......... NO
  Flow Routing Method ...... DYNWAVE
  Surcharge Method ......... EXTRAN
  Starting Date ............ 04/28/2016 18:00:00
  Ending Date .............. 04/29/2016 03:00:00
  Antecedent Dry Days ...... 0.0
  Report Time Step ......... 00:01:00
  Routing Time Step ........ 1.00 sec
  Variable Time Step ....... NO
  Maximum Trials ........... 8
  Number of Threads ........ 2
  Head Tolerance ........... 0.005000 ft
  
  
  *********************
  Control Actions Taken
  *********************

  
  **************************        Volume        Volume
  Flow Routing Continuity        acre-feet      10^6 gal
  **************************     ---------     ---------
  Dry Weather Inflow .......         0.000         0.000
  Wet Weather Inflow .......         0.000         0.000
  Groundwater Inflow .......         0.000         0.000
  RDII Inflow ..............         0.000         0.000
  External Inflow ..........         0.000         0.000
  External Outflow .........         0.000         0.000
  Flooding Loss ............         0.000         0.000
  Evaporation Loss .........         0.000         0.000
  Exfiltration Loss ........         0.000         0.000
  Initial Stored Volume ....         0.246         0.080
  Final Stored Volume ......         0.246         0.080
  Continuity Error (%) .....         0.000
  
  
  ********************************
  Highest Flow Instability Indexes
  ********************************
  All links are stable.
  
  
  ******************
  Node Depth Summary
  ******************
  
  ---------------------------------------------------------------------------------
                                 Average  Maximum  Maximum  Time of Max    Reported
                                   Depth    Depth      HGL   Occurrence   Max Depth
  Node                 Type         Feet     Feet     Feet  days hr:min        Feet
  ---------------------------------------------------------------------------------
  3rdWinflow           JUNCTION  -nan(ind)     0.00   -28.94     0  00:00        0.00
  J1                   JUNCTION  -nan(ind)     0.00   -40.10     0  00:00        0.00
  J10                  JUNCTION  -nan(ind)     0.00   -42.85     0  00:00        0.00
  J100                 JUNCTION  -nan(ind)     0.00   -25.83     0  00:00        0.00
  J101                 JUNCTION  -nan(ind)     0.00   -26.14     0  00:00        0.00
  J102                 JUNCTION  -nan(ind)     0.00   -26.45     0  00:00        0.00
  J103                 JUNCTION  -nan(ind)     0.00   -26.76     0  00:00        0.00
  J104                 JUNCTION  -nan(ind)     0.00   -27.07     0  00:00        0.00
  J105                 JUNCTION  -nan(ind)     0.00   -27.38     0  00:00        0.00
  J106                 JUNCTION  -nan(ind)     0.00   -27.69     0  00:00        0.00
  J107                 JUNCTION  -nan(ind)     0.00   -28.01     0  00:00        0.00
  J108                 JUNCTION  -nan(ind)     0.00   -28.32     0  00:00        0.00
  J109                 JUNCTION  -nan(ind)     0.00   -28.63     0  00:00        0.00
  J11                  JUNCTION  -nan(ind)     0.00   -43.15     0  00:00        0.00
  J12                  JUNCTION  -nan(ind)     0.00   -43.46     0  00:00        0.00
  J13                  JUNCTION  -nan(ind)     0.00   -43.77     0  00:00        0.00
  J14                  JUNCTION  -nan(ind)     0.00   -44.07     0  00:00        0.00
  J15                  JUNCTION  -nan(ind)     0.00   -44.38     0  00:00        0.00
  J16                  JUNCTION  -nan(ind)     0.00   -44.68     0  00:00        0.00
  J17                  JUNCTION  -nan(ind)     0.00   -44.99     0  00:00        0.00
  J18                  JUNCTION  -nan(ind)     0.00   -45.30     0  00:00        0.00
  J19                  JUNCTION  -nan(ind)     0.00   -45.60     0  00:00        0.00
  J2                   JUNCTION  -nan(ind)     0.00   -40.40     0  00:00        0.00
  J20                  JUNCTION  -nan(ind)     0.00   -45.91     0  00:00        0.00
  J21                  JUNCTION  -nan(ind)     0.00   -46.21     0  00:00        0.00
  J22                  JUNCTION  -nan(ind)     0.00   -46.52     0  00:00        0.00
  J23                  JUNCTION  -nan(ind)     0.00   -46.83     0  00:00        0.00
  J24                  JUNCTION  -nan(ind)     0.00   -47.13     0  00:00        0.00
  J25                  JUNCTION  -nan(ind)     0.00   -47.44     0  00:00        0.00
  J26                  JUNCTION  -nan(ind)     0.00   -47.74     0  00:00        0.00
  J27                  JUNCTION  -nan(ind)     0.00   -48.05     0  00:00        0.00
  J28                  JUNCTION  -nan(ind)     0.00   -48.36     0  00:00        0.00
  J29                  JUNCTION  -nan(ind)     0.00   -48.66     0  00:00        0.00
  J3                   JUNCTION  -nan(ind)     0.00   -40.71     0  00:00        0.00
  J30                  JUNCTION  -nan(ind)     0.00   -48.97     0  00:00        0.00
  J31                  JUNCTION  -nan(ind)     0.00   -49.27     0  00:00        0.00
  J32                  JUNCTION  -nan(ind)     0.00   -49.58     0  00:00        0.00
  J33                  JUNCTION  -nan(ind)     0.00   -49.88     0  00:00        0.00
  J34                  JUNCTION  -nan(ind)     0.00   -50.19     0  00:00        0.00
  J35                  JUNCTION  -nan(ind)     0.00   -50.50     0  00:00        0.00
  J36                  JUNCTION  -nan(ind)     0.00   -50.80     0  00:00        0.00
  J37                  JUNCTION  -nan(ind)     0.00   -51.11     0  00:00        0.00
  J38                  JUNCTION  -nan(ind)     0.00   -51.41     0  00:00        0.00
  J39                  JUNCTION  -nan(ind)     0.00   -29.26     0  00:00        0.00
  J4                   JUNCTION  -nan(ind)     0.00   -41.01     0  00:00        0.00
  J40                  JUNCTION  -nan(ind)     0.00   -29.58     0  00:00        0.00
  J41                  JUNCTION  -nan(ind)     0.00   -29.90     0  00:00        0.00
  J42                  JUNCTION  -nan(ind)     0.00   -30.22     0  00:00        0.00
  J43                  JUNCTION  -nan(ind)     0.00   -30.54     0  00:00        0.00
  J44                  JUNCTION  -nan(ind)     0.00   -30.85     0  00:00        0.00
  J45                  JUNCTION  -nan(ind)     0.00   -31.17     0  00:00        0.00
  J46                  JUNCTION  -nan(ind)     0.00   -31.49     0  00:00        0.00
  J47                  JUNCTION  -nan(ind)     0.00   -31.81     0  00:00        0.00
  J48                  JUNCTION  -nan(ind)     0.00   -32.13     0  00:00        0.00
  J49                  JUNCTION  -nan(ind)     0.00   -32.45     0  00:00        0.00
  J5                   JUNCTION  -nan(ind)     0.00   -41.32     0  00:00        0.00
  J50                  JUNCTION  -nan(ind)     0.00   -32.77     0  00:00        0.00
  J51                  JUNCTION  -nan(ind)     0.00   -33.09     0  00:00        0.00
  J52                  JUNCTION  -nan(ind)     0.00   -33.41     0  00:00        0.00
  J53                  JUNCTION  -nan(ind)     0.00   -33.73     0  00:00        0.00
  J54                  JUNCTION  -nan(ind)     0.00   -34.05     0  00:00        0.00
  J55                  JUNCTION  -nan(ind)     0.00   -34.36     0  00:00        0.00
  J56                  JUNCTION  -nan(ind)     0.00   -34.68     0  00:00        0.00
  J57                  JUNCTION  -nan(ind)     0.00   -35.00     0  00:00        0.00
  J58                  JUNCTION  -nan(ind)     0.00   -35.32     0  00:00        0.00
  J59                  JUNCTION  -nan(ind)     0.00   -35.64     0  00:00        0.00
  J6                   JUNCTION  -nan(ind)     0.00   -41.63     0  00:00        0.00
  J60                  JUNCTION  -nan(ind)     0.00   -35.96     0  00:00        0.00
  J61                  JUNCTION  -nan(ind)     0.00   -36.28     0  00:00        0.00
  J62                  JUNCTION  -nan(ind)     0.00   -36.60     0  00:00        0.00
  J63                  JUNCTION  -nan(ind)     0.00   -36.92     0  00:00        0.00
  J64                  JUNCTION  -nan(ind)     0.00   -37.24     0  00:00        0.00
  J65                  JUNCTION  -nan(ind)     0.00   -37.56     0  00:00        0.00
  J66                  JUNCTION  -nan(ind)     0.00   -37.88     0  00:00        0.00
  J67                  JUNCTION  -nan(ind)     0.00   -38.19     0  00:00        0.00
  J68                  JUNCTION  -nan(ind)     0.00   -38.51     0  00:00        0.00
  J69                  JUNCTION  -nan(ind)     0.00   -38.83     0  00:00        0.00
  J7                   JUNCTION  -nan(ind)     0.00   -41.93     0  00:00        0.00
  J70                  JUNCTION  -nan(ind)     0.00   -39.15     0  00:00        0.00
  J71                  JUNCTION  -nan(ind)     0.00   -39.47     0  00:00        0.00
  J72                  JUNCTION  -nan(ind)     0.00   -17.11     0  00:00        0.00
  J73                  JUNCTION  -nan(ind)     0.00   -17.42     0  00:00        0.00
  J74                  JUNCTION  -nan(ind)     0.00   -17.73     0  00:00        0.00
  J75                  JUNCTION  -nan(ind)     0.00   -18.05     0  00:00        0.00
  J76                  JUNCTION  -nan(ind)     0.00   -18.36     0  00:00        0.00
  J77                  JUNCTION  -nan(ind)     0.00   -18.67     0  00:00        0.00
  J78                  JUNCTION  -nan(ind)     0.00   -18.98     0  00:00        0.00
  J79                  JUNCTION  -nan(ind)     0.00   -19.29     0  00:00        0.00
  J8                   JUNCTION  -nan(ind)     0.00   -42.24     0  00:00        0.00
  J80                  JUNCTION  -nan(ind)     0.00   -19.60     0  00:00        0.00
  J81                  JUNCTION  -nan(ind)     0.00   -19.91     0  00:00        0.00
  J82                  JUNCTION  -nan(ind)     0.00   -20.22     0  00:00        0.00
  J83                  JUNCTION  -nan(ind)     0.00   -20.54     0  00:00        0.00
  J84                  JUNCTION  -nan(ind)     0.00   -20.85     0  00:00        0.00
  J85                  JUNCTION  -nan(ind)     0.00   -21.16     0  00:00        0.00
  J86                  JUNCTION  -nan(ind)     0.00   -21.47     0  00:00        0.00
  J87                  JUNCTION  -nan(ind)     0.00   -21.78     0  00:00        0.00
  J88                  JUNCTION  -nan(ind)     0.00   -22.09     0  00:00        0.00
  J89                  JUNCTION  -nan(ind)     0.00   -22.40     0  00:00        0.00
  J9                   JUNCTION  -nan(ind)     0.00   -42.54     0  00:00        0.00
  J90                  JUNCTION  -nan(ind)     0.00   -22.71     0  00:00        0.00
  J91                  JUNCTION  -nan(ind)     0.00   -23.03     0  00:00        0.00
  J92                  JUNCTION  -nan(ind)     0.00   -23.34     0  00:00        0.00
  J93                  JUNCTION  -nan(ind)     0.00   -23.65     0  00:00        0.00
  J94                  JUNCTION  -nan(ind)     0.00   -23.96     0  00:00        0.00
  J95                  JUNCTION  -nan(ind)     0.00   -24.27     0  00:00        0.00
  J96                  JUNCTION  -nan(ind)     0.00   -24.58     0  00:00        0.00
  J97                  JUNCTION  -nan(ind)     0.00   -24.89     0  00:00        0.00
  J98                  JUNCTION  -nan(ind)     0.00   -25.20     0  00:00        0.00
  J99                  JUNCTION  -nan(ind)     0.00   -25.52     0  00:00        0.00
  J110                 OUTFALL   -nan(ind)     0.00     0.00     0  00:00        0.00
  11thNWdrop           STORAGE   -nan(ind)     0.00   -39.79     0  00:00        0.00
  BALLARD_DS           STORAGE   -nan(ind)     0.00   -70.00     0  00:00        0.00
  East_Portal          STORAGE   -nan(ind)     0.00   -16.80     0  00:00        0.00
  SU1                  STORAGE   -nan(ind)     0.00   -16.80     0  00:00        0.00
  
  
  *******************
  Node Inflow Summary
  *******************
  
  -------------------------------------------------------------------------------------------------
                                  Maximum  Maximum                  Lateral       Total        Flow
                                  Lateral    Total  Time of Max      Inflow      Inflow     Balance
                                   Inflow   Inflow   Occurrence      Volume      Volume       Error
  Node                 Type           CFS      CFS  days hr:min    10^6 gal    10^6 gal     Percent
  -------------------------------------------------------------------------------------------------
  3rdWinflow           JUNCTION      0.00     0.00     0  00:00           0           0       0.000 gal
  J1                   JUNCTION      0.00     0.00     0  00:00           0           0       0.000 gal
  J10                  JUNCTION      0.00     0.00     0  00:00           0           0       0.000 gal
  J100                 JUNCTION      0.00     0.00     0  00:00           0           0       0.000 gal
  J101                 JUNCTION      0.00     0.00     0  00:00           0           0       0.000 gal
  J102                 JUNCTION      0.00     0.00     0  00:00           0           0       0.000 gal
  J103                 JUNCTION      0.00     0.00     0  00:00           0           0       0.000 gal
  J104                 JUNCTION      0.00     0.00     0  00:00           0           0       0.000 gal
  J105                 JUNCTION      0.00     0.00     0  00:00           0           0       0.000 gal
  J106                 JUNCTION      0.00     0.00     0  00:00           0           0       0.000 gal
  J107                 JUNCTION      0.00     0.00     0  00:00           0           0       0.000 gal
  J108                 JUNCTION      0.00     0.00     0  00:00           0           0       0.000 gal
  J109                 JUNCTION      0.00     0.00     0  00:00           0           0       0.000 gal
  J11                  JUNCTION      0.00     0.00     0  00:00           0           0       0.000 gal
  J12                  JUNCTION      0.00     0.00     0  00:00           0           0       0.000 gal
  J13                  JUNCTION      0.00     0.00     0  00:00           0           0       0.000 gal
  J14                  JUNCTION      0.00     0.00     0  00:00           0           0       0.000 gal
  J15                  JUNCTION      0.00     0.00     0  00:00           0           0       0.000 gal
  J16                  JUNCTION      0.00     0.00     0  00:00           0           0       0.000 gal
  J17                  JUNCTION      0.00     0.00     0  00:00           0           0       0.000 gal
  J18                  JUNCTION      0.00     0.00     0  00:00           0           0       0.000 gal
  J19                  JUNCTION      0.00     0.00     0  00:00           0           0       0.000 gal
  J2                   JUNCTION      0.00     0.00     0  00:00           0           0       0.000 gal
  J20                  JUNCTION      0.00     0.00     0  00:00           0           0       0.000 gal
  J21                  JUNCTION      0.00     0.00     0  00:00           0           0       0.000 gal
  J22                  JUNCTION      0.00     0.00     0  00:00           0           0       0.000 gal
  J23                  JUNCTION      0.00     0.00     0  00:00           0           0       0.000 gal
  J24                  JUNCTION      0.00     0.00     0  00:00           0           0       0.000 gal
  J25                  JUNCTION      0.00     0.00     0  00:00           0           0       0.000 gal
  J26                  JUNCTION      0.00     0.00     0  00:00           0           0       0.000 gal
  J27                  JUNCTION      0.00     0.00     0  00:00           0           0       0.000 gal
  J28                  JUNCTION      0.00     0.00     0  00:00           0           0       0.000 gal
  J29                  JUNCTION      0.00     0.00     0  00:00           0           0       0.000 gal
  J3                   JUNCTION      0.00     0.00     0  00:00           0           0       0.000 gal
  J30                  JUNCTION      0.00     0.00     0  00:00           0           0       0.000 gal
  J31                  JUNCTION      0.00     0.00     0  00:00           0           0       0.000 gal
  J32                  JUNCTION      0.00     0.00     0  00:00           0           0       0.000 gal
  J33                  JUNCTION      0.00     0.00     0  00:00           0           0       0.000 gal
  J34                  JUNCTION      0.00     0.00     0  00:00           0           0       0.000 gal
  J35                  JUNCTION      0.00     0.00     0  00:00           0           0       0.000 gal
  J36                  JUNCTION      0.00     0.00     0  00:00           0           0       0.000 gal
  J37                  JUNCTION      0.00     0.00     0  00:00           0           0       0.000 gal
  J38                  JUNCTION      0.00     0.00     0  00:00           0           0       0.000 gal
  J39                  JUNCTION      0.00     0.00     0  00:00           0           0       0.000 gal
  J4                   JUNCTION      0.00     0.00     0  00:00           0           0       0.000 gal
  J40                  JUNCTION      0.00     0.00     0  00:00           0           0       0.000 gal
  J41                  JUNCTION      0.00     0.00     0  00:00           0           0       0.000 gal
  J42                  JUNCTION      0.00     0.00     0  00:00           0           0       0.000 gal
  J43                  JUNCTION      0.00     0.00     0  00:00           0           0       0.000 gal
  J44                  JUNCTION      0.00     0.00     0  00:00           0           0       0.000 gal
  J45                  JUNCTION      0.00     0.00     0  00:00           0           0       0.000 gal
  J46                  JUNCTION      0.00     0.00     0  00:00           0           0       0.000 gal
  J47                  JUNCTION      0.00     0.00     0  00:00           0           0       0.000 gal
  J48                  JUNCTION      0.00     0.00     0  00:00           0           0       0.000 gal
  J49                  JUNCTION      0.00     0.00     0  00:00           0           0       0.000 gal
  J5                   JUNCTION      0.00     0.00     0  00:00           0           0       0.000 gal
  J50                  JUNCTION      0.00     0.00     0  00:00           0           0       0.000 gal
  J51                  JUNCTION      0.00     0.00     0  00:00           0           0       0.000 gal
  J52                  JUNCTION      0.00     0.00     0  00:00           0           0       0.000 gal
  J53                  JUNCTION      0.00     0.00     0  00:00           0           0       0.000 gal
  J54                  JUNCTION      0.00     0.00     0  00:00           0           0       0.000 gal
  J55                  JUNCTION      0.00     0.00     0  00:00           0           0       0.000 gal
  J56                  JUNCTION      0.00     0.00     0  00:00           0           0       0.000 gal
  J57                  JUNCTION      0.00     0.00     0  00:00           0           0       0.000 gal
  J58                  JUNCTION      0.00     0.00     0  00:00           0           0       0.000 gal
  J59                  JUNCTION      0.00     0.00     0  00:00           0           0       0.000 gal
  J6                   JUNCTION      0.00     0.00     0  00:00           0           0       0.000 gal
  J60                  JUNCTION      0.00     0.00     0  00:00           0           0       0.000 gal
  J61                  JUNCTION      0.00     0.00     0  00:00           0           0       0.000 gal
  J62                  JUNCTION      0.00     0.00     0  00:00           0           0       0.000 gal
  J63                  JUNCTION      0.00     0.00     0  00:00           0           0       0.000 gal
  J64                  JUNCTION      0.00     0.00     0  00:00           0           0       0.000 gal
  J65                  JUNCTION      0.00     0.00     0  00:00           0           0       0.000 gal
  J66                  JUNCTION      0.00     0.00     0  00:00           0           0       0.000 gal
  J67                  JUNCTION      0.00     0.00     0  00:00           0           0       0.000 gal
  J68                  JUNCTION      0.00     0.00     0  00:00           0           0       0.000 gal
  J69                  JUNCTION      0.00     0.00     0  00:00           0           0       0.000 gal
  J7                   JUNCTION      0.00     0.00     0  00:00           0           0       0.000 gal
  J70                  JUNCTION      0.00     0.00     0  00:00           0           0       0.000 gal
  J71                  JUNCTION      0.00     0.00     0  00:00           0           0       0.000 gal
  J72                  JUNCTION      0.00     0.00     0  00:00           0           0       0.000 gal
  J73                  JUNCTION      0.00     0.00     0  00:00           0           0       0.000 gal
  J74                  JUNCTION      0.00     0.00     0  00:00           0           0       0.000 gal
  J75                  JUNCTION      0.00     0.00     0  00:00           0           0       0.000 gal
  J76                  JUNCTION      0.00     0.00     0  00:00           0           0       0.000 gal
  J77                  JUNCTION      0.00     0.00     0  00:00           0           0       0.000 gal
  J78                  JUNCTION      0.00     0.00     0  00:00           0           0       0.000 gal
  J79                  JUNCTION      0.00     0.00     0  00:00           0           0       0.000 gal
  J8                   JUNCTION      0.00     0.00     0  00:00           0           0       0.000 gal
  J80                  JUNCTION      0.00     0.00     0  00:00           0           0       0.000 gal
  J81                  JUNCTION      0.00     0.00     0  00:00           0           0       0.000 gal
  J82                  JUNCTION      0.00     0.00     0  00:00           0           0       0.000 gal
  J83                  JUNCTION      0.00     0.00     0  00:00           0           0       0.000 gal
  J84                  JUNCTION      0.00     0.00     0  00:00           0           0       0.000 gal
  J85                  JUNCTION      0.00     0.00     0  00:00           0           0       0.000 gal
  J86                  JUNCTION      0.00     0.00     0  00:00           0           0       0.000 gal
  J87                  JUNCTION      0.00     0.00     0  00:00           0           0       0.000 gal
  J88                  JUNCTION      0.00     0.00     0  00:00           0           0       0.000 gal
  J89                  JUNCTION      0.00     0.00     0  00:00           0           0       0.000 gal
  J9                   JUNCTION      0.00     0.00     0  00:00           0           0       0.000 gal
  J90                  JUNCTION      0.00     0.00     0  00:00           0           0       0.000 gal
  J91                  JUNCTION      0.00     0.00     0  00:00           0           0       0.000 gal
  J92                  JUNCTION      0.00     0.00     0  00:00           0           0       0.000 gal
  J93                  JUNCTION      0.00     0.00     0  00:00           0           0       0.000 gal
  J94                  JUNCTION      0.00     0.00     0  00:00           0           0       0.000 gal
  J95                  JUNCTION      0.00     0.00     0  00:00           0           0       0.000 gal
  J96                  JUNCTION      0.00     0.00     0  00:00           0           0       0.000 gal
  J97                  JUNCTION      0.00     0.00     0  00:00           0           0       0.000 gal
  J98                  JUNCTION      0.00     0.00     0  00:00           0           0       0.000 gal
  J99                  JUNCTION      0.00     0.00     0  00:00           0           0       0.000 gal
  J110                 OUTFALL       0.00     0.00     0  00:00           0           0       0.000 gal
  11thNWdrop           STORAGE       0.00     0.00     0  00:00           0           0       0.000 gal
  BALLARD_DS           STORAGE       0.00     0.00     0  00:00           0           0       0.000 gal
  East_Portal          STORAGE       0.00     0.00     0  00:00           0           0       0.000 gal
  SU1                  STORAGE       0.00     0.00     0  00:00           0        0.08       0.000
  
  
  **********************
  Node Surcharge Summary
  **********************
  
  No nodes were surcharged.
  
  
  *********************
  Node Flooding Summary
  *********************
  
  No nodes were flooded.
  
  
  **********************
  Storage Volume Summary
  **********************
  
  --------------------------------------------------------------------------------------------------
                         Average     Avg  Evap Exfil       Maximum     Max    Time of Max    Maximum
                          Volume    Pcnt  Pcnt  Pcnt        Volume    Pcnt     Occurrence    Outflow
  Storage Unit          1000 ft3    Full  Loss  Loss      1000 ft3    Full    days hr:min        CFS
  --------------------------------------------------------------------------------------------------
  11thNWdrop           -nan(ind)    -nan(ind)     0     0         0.000       0       0  00:00       0.00
  BALLARD_DS           -nan(ind)    -nan(ind)     0     0         0.000       0       0  00:00       0.00
  East_Portal          -nan(ind)    -nan(ind)     0     0         0.000       0       0  00:00       0.00
  SU1                  -nan(ind)    -nan(ind)     0     0         0.000       0       0  00:00       0.00
  
  
  ***********************
  Outfall Loading Summary
  ***********************
  
  -----------------------------------------------------------
                         Flow       Avg       Max       Total
                         Freq      Flow      Flow      Volume
  Outfall Node           Pcnt       CFS       CFS    10^6 gal
  -----------------------------------------------------------
  J110                -nan(ind)      0.00      0.00       0.000
  -----------------------------------------------------------
  System              -nan(ind)      0.00      0.00       0.000
  
  
  ********************
  Link Flow Summary
  ********************
  
  -----------------------------------------------------------------------------
                                 Maximum  Time of Max   Maximum    Max/    Max/
                                  |Flow|   Occurrence   |Veloc|    Full    Full
  Link                 Type          CFS  days hr:min    ft/sec    Flow   Depth
  -----------------------------------------------------------------------------
  C1                   CONDUIT      0.00     0  00:00      0.00    0.00    0.00
  C1_1                 CONDUIT      0.00     0  00:00      0.00    0.00    0.00
  C1_10                CONDUIT      0.00     0  00:00      0.00    0.00    0.00
  C1_100               CONDUIT      0.00     0  00:00      0.00    0.00    0.00
  C1_101               CONDUIT      0.00     0  00:00      0.00    0.00    0.00
  C1_102               CONDUIT      0.00     0  00:00      0.00    0.00    0.00
  C1_103               CONDUIT      0.00     0  00:00      0.00    0.00    0.00
  C1_104               CONDUIT      0.00     0  00:00      0.00    0.00    0.00
  C1_105               CONDUIT      0.00     0  00:00      0.00    0.00    0.00
  C1_106               CONDUIT      0.00     0  00:00      0.00    0.00    0.00
  C1_107               CONDUIT      0.00     0  00:00      0.00    0.00    0.00
  C1_108               CONDUIT      0.00     0  00:00      0.00    0.00    0.00
  C1_109               CONDUIT      0.00     0  00:00      0.00    0.00    0.00
  C1_11                CONDUIT      0.00     0  00:00      0.00    0.00    0.00
  C1_110               CONDUIT      0.00     0  00:00      0.00    0.00    0.00
  C1_111               CONDUIT      0.00     0  00:00      0.00    0.00    0.00
  C1_112               CONDUIT      0.00     0  00:00      0.00    0.00    0.00
  C1_12                CONDUIT      0.00     0  00:00      0.00    0.00    0.00
  C1_13                CONDUIT      0.00     0  00:00      0.00    0.00    0.00
  C1_14                CONDUIT      0.00     0  00:00      0.00    0.00    0.00
  C1_15                CONDUIT      0.00     0  00:00      0.00    0.00    0.00
  C1_16                CONDUIT      0.00     0  00:00      0.00    0.00    0.00
  C1_17                CONDUIT      0.00     0  00:00      0.00    0.00    0.00
  C1_18                CONDUIT      0.00     0  00:00      0.00    0.00    0.00
  C1_19                CONDUIT      0.00     0  00:00      0.00    0.00    0.00
  C1_2                 CONDUIT      0.00     0  00:00      0.00    0.00    0.00
  C1_20                CONDUIT      0.00     0  00:00      0.00    0.00    0.00
  C1_21                CONDUIT      0.00     0  00:00      0.00    0.00    0.00
  C1_22                CONDUIT      0.00     0  00:00      0.00    0.00    0.00
  C1_23                CONDUIT      0.00     0  00:00      0.00    0.00    0.00
  C1_24                CONDUIT      0.00     0  00:00      0.00    0.00    0.00
  C1_25                CONDUIT      0.00     0  00:00      0.00    0.00    0.00
  C1_26                CONDUIT      0.00     0  00:00      0.00    0.00    0.00
  C1_27                CONDUIT      0.00     0  00:00      0.00    0.00    0.00
  C1_28                CONDUIT      0.00     0  00:00      0.00    0.00    0.00
  C1_29                CONDUIT      0.00     0  00:00      0.00    0.00    0.00
  C1_3                 CONDUIT      0.00     0  00:00      0.00    0.00    0.00
  C1_30                CONDUIT      0.00     0  00:00      0.00    0.00    0.00
  C1_31                CONDUIT      0.00     0  00:00      0.00    0.00    0.00
  C1_32                CONDUIT      0.00     0  00:00      0.00    0.00    0.00
  C1_33                CONDUIT      0.00     0  00:00      0.00    0.00    0.00
  C1_34                CONDUIT      0.00     0  00:00      0.00    0.00    0.00
  C1_35                CONDUIT      0.00     0  00:00      0.00    0.00    0.00
  C1_36                CONDUIT      0.00     0  00:00      0.00    0.00    0.00
  C1_37                CONDUIT      0.00     0  00:00      0.00    0.00    0.00
  C1_38                CONDUIT      0.00     0  00:00      0.00    0.00    0.00
  C1_39                CONDUIT      0.00     0  00:00      0.00    0.00    0.00
  C1_4                 CONDUIT      0.00     0  00:00      0.00    0.00    0.00
  C1_40                CONDUIT      0.00     0  00:00      0.00    0.00    0.00
  C1_41                CONDUIT      0.00     0  00:00      0.00    0.00    0.00
  C1_42                CONDUIT      0.00     0  00:00      0.00    0.00    0.00
  C1_43                CONDUIT      0.00     0  00:00      0.00    0.00    0.00
  C1_44                CONDUIT      0.00     0  00:00      0.00    0.00    0.00
  C1_45                CONDUIT      0.00     0  00:00      0.00    0.00    0.00
  C1_46                CONDUIT      0.00     0  00:00      0.00    0.00    0.00
  C1_47                CONDUIT      0.00     0  00:00      0.00    0.00    0.00
  C1_48                CONDUIT      0.00     0  00:00      0.00    0.00    0.00
  C1_49                CONDUIT      0.00     0  00:00      0.00    0.00    0.00
  C1_5                 CONDUIT      0.00     0  00:00      0.00    0.00    0.00
  C1_50                CONDUIT      0.00     0  00:00      0.00    0.00    0.00
  C1_51                CONDUIT      0.00     0  00:00      0.00    0.00    0.00
  C1_52                CONDUIT      0.00     0  00:00      0.00    0.00    0.00
  C1_53                CONDUIT      0.00     0  00:00      0.00    0.00    0.00
  C1_54                CONDUIT      0.00     0  00:00      0.00    0.00    0.00
  C1_55                CONDUIT      0.00     0  00:00      0.00    0.00    0.00
  C1_56                CONDUIT      0.00     0  00:00      0.00    0.00    0.00
  C1_57                CONDUIT      0.00     0  00:00      0.00    0.00    0.00
  C1_58                CONDUIT      0.00     0  00:00      0.00    0.00    0.00
  C1_59                CONDUIT      0.00     0  00:00      0.00    0.00    0.00
  C1_6                 CONDUIT      0.00     0  00:00      0.00    0.00    0.00
  C1_60                CONDUIT      0.00     0  00:00      0.00    0.00    0.00
  C1_61                CONDUIT      0.00     0  00:00      0.00    0.00    0.00
  C1_62                CONDUIT      0.00     0  00:00      0.00    0.00    0.00
  C1_63                CONDUIT      0.00     0  00:00      0.00    0.00    0.00
  C1_64                CONDUIT      0.00     0  00:00      0.00    0.00    0.00
  C1_65                CONDUIT      0.00     0  00:00      0.00    0.00    0.00
  C1_66                CONDUIT      0.00     0  00:00      0.00    0.00    0.00
  C1_67                CONDUIT      0.00     0  00:00      0.00    0.00    0.00
  C1_68                CONDUIT      0.00     0  00:00      0.00    0.00    0.00
  C1_69                CONDUIT      0.00     0  00:00      0.00    0.00    0.00
  C1_7                 CONDUIT      0.00     0  00:00      0.00    0.00    0.00
  C1_70                CONDUIT      0.00     0  00:00      0.00    0.00    0.00
  C1_71                CONDUIT      0.00     0  00:00      0.00    0.00    0.00
  C1_72                CONDUIT      0.00     0  00:00      0.00    0.00    0.00
  C1_73                CONDUIT      0.00     0  00:00      0.00    0.00    0.00
  C1_74                CONDUIT      0.00     0  00:00      0.00    0.00    0.00
  C1_75                CONDUIT      0.00     0  00:00      0.00    0.00    0.00
  C1_76                CONDUIT      0.00     0  00:00      0.00    0.00    0.00
  C1_77                CONDUIT      0.00     0  00:00      0.00    0.00    0.00
  C1_78                CONDUIT      0.00     0  00:00      0.00    0.00    0.00
  C1_79                CONDUIT      0.00     0  00:00      0.00    0.00    0.00
  C1_8                 CONDUIT      0.00     0  00:00      0.00    0.00    0.00
  C1_80                CONDUIT      0.00     0  00:00      0.00    0.00    0.00
  C1_81                CONDUIT      0.00     0  00:00      0.00    0.00    0.00
  C1_82                CONDUIT      0.00     0  00:00      0.00    0.00    0.00
  C1_83                CONDUIT      0.00     0  00:00      0.00    0.00    0.00
  C1_84                CONDUIT      0.00     0  00:00      0.00    0.00    0.00
  C1_85                CONDUIT      0.00     0  00:00      0.00    0.00    0.00
  C1_86                CONDUIT      0.00     0  00:00      0.00    0.00    0.00
  C1_87                CONDUIT      0.00     0  00:00      0.00    0.00    0.00
  C1_88                CONDUIT      0.00     0  00:00      0.00    0.00    0.00
  C1_89                CONDUIT      0.00     0  00:00      0.00    0.00    0.00
  C1_9                 CONDUIT      0.00     0  00:00      0.00    0.00    0.00
  C1_90                CONDUIT      0.00     0  00:00      0.00    0.00    0.00
  C1_91                CONDUIT      0.00     0  00:00      0.00    0.00    0.00
  C1_92                CONDUIT      0.00     0  00:00      0.00    0.00    0.00
  C1_93                CONDUIT      0.00     0  00:00      0.00    0.00    0.00
  C1_94                CONDUIT      0.00     0  00:00      0.00    0.00    0.00
  C1_95                CONDUIT      0.00     0  00:00      0.00    0.00    0.00
  C1_96                CONDUIT      0.00     0  00:00      0.00    0.00    0.00
  C1_97                CONDUIT      0.00     0  00:00      0.00    0.00    0.00
  C1_98                CONDUIT      0.00     0  00:00      0.00    0.00    0.00
  C1_99                CONDUIT      0.00     0  00:00      0.00    0.00    0.00
  OF1                  ORIFICE      0.00     0  00:00                      0.00
  
  
  ***************************
  Flow Classification Summary
  ***************************
  
  -------------------------------------------------------------------------------------
                      Adjusted    ---------- Fraction of Time in Flow Class ---------- 
                       /Actual         Up    Down  Sub   Sup   Up    Down  Norm  Inlet 
  Conduit               Length    Dry  Dry   Dry   Crit  Crit  Crit  Crit  Ltd   Ctrl  
  -------------------------------------------------------------------------------------
  C1                      1.00   -nan(ind)  -nan(ind)  -nan(ind)  -nan(ind)  -nan(ind)  -nan(ind)  -nan(ind)  -nan(ind)  -nan(ind)
  C1_1                    1.00   -nan(ind)  -nan(ind)  -nan(ind)  -nan(ind)  -nan(ind)  -nan(ind)  -nan(ind)  -nan(ind)  -nan(ind)
  C1_10                   1.00   -nan(ind)  -nan(ind)  -nan(ind)  -nan(ind)  -nan(ind)  -nan(ind)  -nan(ind)  -nan(ind)  -nan(ind)
  C1_100                  1.00   -nan(ind)  -nan(ind)  -nan(ind)  -nan(ind)  -nan(ind)  -nan(ind)  -nan(ind)  -nan(ind)  -nan(ind)
  C1_101                  1.00   -nan(ind)  -nan(ind)  -nan(ind)  -nan(ind)  -nan(ind)  -nan(ind)  -nan(ind)  -nan(ind)  -nan(ind)
  C1_102                  1.00   -nan(ind)  -nan(ind)  -nan(ind)  -nan(ind)  -nan(ind)  -nan(ind)  -nan(ind)  -nan(ind)  -nan(ind)
  C1_103                  1.00   -nan(ind)  -nan(ind)  -nan(ind)  -nan(ind)  -nan(ind)  -nan(ind)  -nan(ind)  -nan(ind)  -nan(ind)
  C1_104                  1.00   -nan(ind)  -nan(ind)  -nan(ind)  -nan(ind)  -nan(ind)  -nan(ind)  -nan(ind)  -nan(ind)  -nan(ind)
  C1_105                  1.00   -nan(ind)  -nan(ind)  -nan(ind)  -nan(ind)  -nan(ind)  -nan(ind)  -nan(ind)  -nan(ind)  -nan(ind)
  C1_106                  1.00   -nan(ind)  -nan(ind)  -nan(ind)  -nan(ind)  -nan(ind)  -nan(ind)  -nan(ind)  -nan(ind)  -nan(ind)
  C1_107                  1.00   -nan(ind)  -nan(ind)  -nan(ind)  -nan(ind)  -nan(ind)  -nan(ind)  -nan(ind)  -nan(ind)  -nan(ind)
  C1_108                  1.00   -nan(ind)  -nan(ind)  -nan(ind)  -nan(ind)  -nan(ind)  -nan(ind)  -nan(ind)  -nan(ind)  -nan(ind)
  C1_109                  1.00   -nan(ind)  -nan(ind)  -nan(ind)  -nan(ind)  -nan(ind)  -nan(ind)  -nan(ind)  -nan(ind)  -nan(ind)
  C1_11                   1.00   -nan(ind)  -nan(ind)  -nan(ind)  -nan(ind)  -nan(ind)  -nan(ind)  -nan(ind)  -nan(ind)  -nan(ind)
  C1_110                  1.00   -nan(ind)  -nan(ind)  -nan(ind)  -nan(ind)  -nan(ind)  -nan(ind)  -nan(ind)  -nan(ind)  -nan(ind)
  C1_111                  1.00   -nan(ind)  -nan(ind)  -nan(ind)  -nan(ind)  -nan(ind)  -nan(ind)  -nan(ind)  -nan(ind)  -nan(ind)
  C1_112                  1.00   -nan(ind)  -nan(ind)  -nan(ind)  -nan(ind)  -nan(ind)  -nan(ind)  -nan(ind)  -nan(ind)  -nan(ind)
  C1_12                   1.00   -nan(ind)  -nan(ind)  -nan(ind)  -nan(ind)  -nan(ind)  -nan(ind)  -nan(ind)  -nan(ind)  -nan(ind)
  C1_13                   1.00   -nan(ind)  -nan(ind)  -nan(ind)  -nan(ind)  -nan(ind)  -nan(ind)  -nan(ind)  -nan(ind)  -nan(ind)
  C1_14                   1.00   -nan(ind)  -nan(ind)  -nan(ind)  -nan(ind)  -nan(ind)  -nan(ind)  -nan(ind)  -nan(ind)  -nan(ind)
  C1_15                   1.00   -nan(ind)  -nan(ind)  -nan(ind)  -nan(ind)  -nan(ind)  -nan(ind)  -nan(ind)  -nan(ind)  -nan(ind)
  C1_16                   1.00   -nan(ind)  -nan(ind)  -nan(ind)  -nan(ind)  -nan(ind)  -nan(ind)  -nan(ind)  -nan(ind)  -nan(ind)
  C1_17                   1.00   -nan(ind)  -nan(ind)  -nan(ind)  -nan(ind)  -nan(ind)  -nan(ind)  -nan(ind)  -nan(ind)  -nan(ind)
  C1_18                   1.00   -nan(ind)  -nan(ind)  -nan(ind)  -nan(ind)  -nan(ind)  -nan(ind)  -nan(ind)  -nan(ind)  -nan(ind)
  C1_19                   1.00   -nan(ind)  -nan(ind)  -nan(ind)  -nan(ind)  -nan(ind)  -nan(ind)  -nan(ind)  -nan(ind)  -nan(ind)
  C1_2                    1.00   -nan(ind)  -nan(ind)  -nan(ind)  -nan(ind)  -nan(ind)  -nan(ind)  -nan(ind)  -nan(ind)  -nan(ind)
  C1_20                   1.00   -nan(ind)  -nan(ind)  -nan(ind)  -nan(ind)  -nan(ind)  -nan(ind)  -nan(ind)  -nan(ind)  -nan(ind)
  C1_21                   1.00   -nan(ind)  -nan(ind)  -nan(ind)  -nan(ind)  -nan(ind)  -nan(ind)  -nan(ind)  -nan(ind)  -nan(ind)
  C1_22                   1.00   -nan(ind)  -nan(ind)  -nan(ind)  -nan(ind)  -nan(ind)  -nan(ind)  -nan(ind)  -nan(ind)  -nan(ind)
  C1_23                   1.00   -nan(ind)  -nan(ind)  -nan(ind)  -nan(ind)  -nan(ind)  -nan(ind)  -nan(ind)  -nan(ind)  -nan(ind)
  C1_24                   1.00   -nan(ind)  -nan(ind)  -nan(ind)  -nan(ind)  -nan(ind)  -nan(ind)  -nan(ind)  -nan(ind)  -nan(ind)
  C1_25                   1.00   -nan(ind)  -nan(ind)  -nan(ind)  -nan(ind)  -nan(ind)  -nan(ind)  -nan(ind)  -nan(ind)  -nan(ind)
  C1_26                   1.00   -nan(ind)  -nan(ind)  -nan(ind)  -nan(ind)  -nan(ind)  -nan(ind)  -nan(ind)  -nan(ind)  -nan(ind)
  C1_27                   1.00   -nan(ind)  -nan(ind)  -nan(ind)  -nan(ind)  -nan(ind)  -nan(ind)  -nan(ind)  -nan(ind)  -nan(ind)
  C1_28                   1.00   -nan(ind)  -nan(ind)  -nan(ind)  -nan(ind)  -nan(ind)  -nan(ind)  -nan(ind)  -nan(ind)  -nan(ind)
  C1_29                   1.00   -nan(ind)  -nan(ind)  -nan(ind)  -nan(ind)  -nan(ind)  -nan(ind)  -nan(ind)  -nan(ind)  -nan(ind)
  C1_3                    1.00   -nan(ind)  -nan(ind)  -nan(ind)  -nan(ind)  -nan(ind)  -nan(ind)  -nan(ind)  -nan(ind)  -nan(ind)
  C1_30                   1.00   -nan(ind)  -nan(ind)  -nan(ind)  -nan(ind)  -nan(ind)  -nan(ind)  -nan(ind)  -nan(ind)  -nan(ind)
  C1_31                   1.00   -nan(ind)  -nan(ind)  -nan(ind)  -nan(ind)  -nan(ind)  -nan(ind)  -nan(ind)  -nan(ind)  -nan(ind)
  C1_32                   1.00   -nan(ind)  -nan(ind)  -nan(ind)  -nan(ind)  -nan(ind)  -nan(ind)  -nan(ind)  -nan(ind)  -nan(ind)
  C1_33                   1.00   -nan(ind)  -nan(ind)  -nan(ind)  -nan(ind)  -nan(ind)  -nan(ind)  -nan(ind)  -nan(ind)  -nan(ind)
  C1_34                   1.00   -nan(ind)  -nan(ind)  -nan(ind)  -nan(ind)  -nan(ind)  -nan(ind)  -nan(ind)  -nan(ind)  -nan(ind)
  C1_35                   1.00   -nan(ind)  -nan(ind)  -nan(ind)  -nan(ind)  -nan(ind)  -nan(ind)  -nan(ind)  -nan(ind)  -nan(ind)
  C1_36                   1.00   -nan(ind)  -nan(ind)  -nan(ind)  -nan(ind)  -nan(ind)  -nan(ind)  -nan(ind)  -nan(ind)  -nan(ind)
  C1_37                   1.00   -nan(ind)  -nan(ind)  -nan(ind)  -nan(ind)  -nan(ind)  -nan(ind)  -nan(ind)  -nan(ind)  -nan(ind)
  C1_38                   1.00   -nan(ind)  -nan(ind)  -nan(ind)  -nan(ind)  -nan(ind)  -nan(ind)  -nan(ind)  -nan(ind)  -nan(ind)
  C1_39                   1.00   -nan(ind)  -nan(ind)  -nan(ind)  -nan(ind)  -nan(ind)  -nan(ind)  -nan(ind)  -nan(ind)  -nan(ind)
  C1_4                    1.00   -nan(ind)  -nan(ind)  -nan(ind)  -nan(ind)  -nan(ind)  -nan(ind)  -nan(ind)  -nan(ind)  -nan(ind)
  C1_40                   1.00   -nan(ind)  -nan(ind)  -nan(ind)  -nan(ind)  -nan(ind)  -nan(ind)  -nan(ind)  -nan(ind)  -nan(ind)
  C1_41                   1.00   -nan(ind)  -nan(ind)  -nan(ind)  -nan(ind)  -nan(ind)  -nan(ind)  -nan(ind)  -nan(ind)  -nan(ind)
  C1_42                   1.00   -nan(ind)  -nan(ind)  -nan(ind)  -nan(ind)  -nan(ind)  -nan(ind)  -nan(ind)  -nan(ind)  -nan(ind)
  C1_43                   1.00   -nan(ind)  -nan(ind)  -nan(ind)  -nan(ind)  -nan(ind)  -nan(ind)  -nan(ind)  -nan(ind)  -nan(ind)
  C1_44                   1.00   -nan(ind)  -nan(ind)  -nan(ind)  -nan(ind)  -nan(ind)  -nan(ind)  -nan(ind)  -nan(ind)  -nan(ind)
  C1_45                   1.00   -nan(ind)  -nan(ind)  -nan(ind)  -nan(ind)  -nan(ind)  -nan(ind)  -nan(ind)  -nan(ind)  -nan(ind)
  C1_46                   1.00   -nan(ind)  -nan(ind)  -nan(ind)  -nan(ind)  -nan(ind)  -nan(ind)  -nan(ind)  -nan(ind)  -nan(ind)
  C1_47                   1.00   -nan(ind)  -nan(ind)  -nan(ind)  -nan(ind)  -nan(ind)  -nan(ind)  -nan(ind)  -nan(ind)  -nan(ind)
  C1_48                   1.00   -nan(ind)  -nan(ind)  -nan(ind)  -nan(ind)  -nan(ind)  -nan(ind)  -nan(ind)  -nan(ind)  -nan(ind)
  C1_49                   1.00   -nan(ind)  -nan(ind)  -nan(ind)  -nan(ind)  -nan(ind)  -nan(ind)  -nan(ind)  -nan(ind)  -nan(ind)
  C1_5                    1.00   -nan(ind)  -nan(ind)  -nan(ind)  -nan(ind)  -nan(ind)  -nan(ind)  -nan(ind)  -nan(ind)  -nan(ind)
  C1_50                   1.00   -nan(ind)  -nan(ind)  -nan(ind)  -nan(ind)  -nan(ind)  -nan(ind)  -nan(ind)  -nan(ind)  -nan(ind)
  C1_51                   1.00   -nan(ind)  -nan(ind)  -nan(ind)  -nan(ind)  -nan(ind)  -nan(ind)  -nan(ind)  -nan(ind)  -nan(ind)
  C1_52                   1.00   -nan(ind)  -nan(ind)  -nan(ind)  -nan(ind)  -nan(ind)  -nan(ind)  -nan(ind)  -nan(ind)  -nan(ind)
  C1_53                   1.00   -nan(ind)  -nan(ind)  -nan(ind)  -nan(ind)  -nan(ind)  -nan(ind)  -nan(ind)  -nan(ind)  -nan(ind)
  C1_54                   1.00   -nan(ind)  -nan(ind)  -nan(ind)  -nan(ind)  -nan(ind)  -nan(ind)  -nan(ind)  -nan(ind)  -nan(ind)
  C1_55                   1.00   -nan(ind)  -nan(ind)  -nan(ind)  -nan(ind)  -nan(ind)  -nan(ind)  -nan(ind)  -nan(ind)  -nan(ind)
  C1_56                   1.00   -nan(ind)  -nan(ind)  -nan(ind)  -nan(ind)  -nan(ind)  -nan(ind)  -nan(ind)  -nan(ind)  -nan(ind)
  C1_57                   1.00   -nan(ind)  -nan(ind)  -nan(ind)  -nan(ind)  -nan(ind)  -nan(ind)  -nan(ind)  -nan(ind)  -nan(ind)
  C1_58                   1.00   -nan(ind)  -nan(ind)  -nan(ind)  -nan(ind)  -nan(ind)  -nan(ind)  -nan(ind)  -nan(ind)  -nan(ind)
  C1_59                   1.00   -nan(ind)  -nan(ind)  -nan(ind)  -nan(ind)  -nan(ind)  -nan(ind)  -nan(ind)  -nan(ind)  -nan(ind)
  C1_6                    1.00   -nan(ind)  -nan(ind)  -nan(ind)  -nan(ind)  -nan(ind)  -nan(ind)  -nan(ind)  -nan(ind)  -nan(ind)
  C1_60                   1.00   -nan(ind)  -nan(ind)  -nan(ind)  -nan(ind)  -nan(ind)  -nan(ind)  -nan(ind)  -nan(ind)  -nan(ind)
  C1_61                   1.00   -nan(ind)  -nan(ind)  -nan(ind)  -nan(ind)  -nan(ind)  -nan(ind)  -nan(ind)  -nan(ind)  -nan(ind)
  C1_62                   1.00   -nan(ind)  -nan(ind)  -nan(ind)  -nan(ind)  -nan(ind)  -nan(ind)  -nan(ind)  -nan(ind)  -nan(ind)
  C1_63                   1.00   -nan(ind)  -nan(ind)  -nan(ind)  -nan(ind)  -nan(ind)  -nan(ind)  -nan(ind)  -nan(ind)  -nan(ind)
  C1_64                   1.00   -nan(ind)  -nan(ind)  -nan(ind)  -nan(ind)  -nan(ind)  -nan(ind)  -nan(ind)  -nan(ind)  -nan(ind)
  C1_65                   1.00   -nan(ind)  -nan(ind)  -nan(ind)  -nan(ind)  -nan(ind)  -nan(ind)  -nan(ind)  -nan(ind)  -nan(ind)
  C1_66                   1.00   -nan(ind)  -nan(ind)  -nan(ind)  -nan(ind)  -nan(ind)  -nan(ind)  -nan(ind)  -nan(ind)  -nan(ind)
  C1_67                   1.00   -nan(ind)  -nan(ind)  -nan(ind)  -nan(ind)  -nan(ind)  -nan(ind)  -nan(ind)  -nan(ind)  -nan(ind)
  C1_68                   1.00   -nan(ind)  -nan(ind)  -nan(ind)  -nan(ind)  -nan(ind)  -nan(ind)  -nan(ind)  -nan(ind)  -nan(ind)
  C1_69                   1.00   -nan(ind)  -nan(ind)  -nan(ind)  -nan(ind)  -nan(ind)  -nan(ind)  -nan(ind)  -nan(ind)  -nan(ind)
  C1_7                    1.00   -nan(ind)  -nan(ind)  -nan(ind)  -nan(ind)  -nan(ind)  -nan(ind)  -nan(ind)  -nan(ind)  -nan(ind)
  C1_70                   1.00   -nan(ind)  -nan(ind)  -nan(ind)  -nan(ind)  -nan(ind)  -nan(ind)  -nan(ind)  -nan(ind)  -nan(ind)
  C1_71                   1.00   -nan(ind)  -nan(ind)  -nan(ind)  -nan(ind)  -nan(ind)  -nan(ind)  -nan(ind)  -nan(ind)  -nan(ind)
  C1_72                   1.00   -nan(ind)  -nan(ind)  -nan(ind)  -nan(ind)  -nan(ind)  -nan(ind)  -nan(ind)  -nan(ind)  -nan(ind)
  C1_73                   1.00   -nan(ind)  -nan(ind)  -nan(ind)  -nan(ind)  -nan(ind)  -nan(ind)  -nan(ind)  -nan(ind)  -nan(ind)
  C1_74                   1.00   -nan(ind)  -nan(ind)  -nan(ind)  -nan(ind)  -nan(ind)  -nan(ind)  -nan(ind)  -nan(ind)  -nan(ind)
  C1_75                   1.00   -nan(ind)  -nan(ind)  -nan(ind)  -nan(ind)  -nan(ind)  -nan(ind)  -nan(ind)  -nan(ind)  -nan(ind)
  C1_76                   1.00   -nan(ind)  -nan(ind)  -nan(ind)  -nan(ind)  -nan(ind)  -nan(ind)  -nan(ind)  -nan(ind)  -nan(ind)
  C1_77                   1.00   -nan(ind)  -nan(ind)  -nan(ind)  -nan(ind)  -nan(ind)  -nan(ind)  -nan(ind)  -nan(ind)  -nan(ind)
  C1_78                   1.00   -nan(ind)  -nan(ind)  -nan(ind)  -nan(ind)  -nan(ind)  -nan(ind)  -nan(ind)  -nan(ind)  -nan(ind)
  C1_79                   1.00   -nan(ind)  -nan(ind)  -nan(ind)  -nan(ind)  -nan(ind)  -nan(ind)  -nan(ind)  -nan(ind)  -nan(ind)
  C1_8                    1.00   -nan(ind)  -nan(ind)  -nan(ind)  -nan(ind)  -nan(ind)  -nan(ind)  -nan(ind)  -nan(ind)  -nan(ind)
  C1_80                   1.00   -nan(ind)  -nan(ind)  -nan(ind)  -nan(ind)  -nan(ind)  -nan(ind)  -nan(ind)  -nan(ind)  -nan(ind)
  C1_81                   1.00   -nan(ind)  -nan(ind)  -nan(ind)  -nan(ind)  -nan(ind)  -nan(ind)  -nan(ind)  -nan(ind)  -nan(ind)
  C1_82                   1.00   -nan(ind)  -nan(ind)  -nan(ind)  -nan(ind)  -nan(ind)  -nan(ind)  -nan(ind)  -nan(ind)  -nan(ind)
  C1_83                   1.00   -nan(ind)  -nan(ind)  -nan(ind)  -nan(ind)  -nan(ind)  -nan(ind)  -nan(ind)  -nan(ind)  -nan(ind)
  C1_84                   1.00   -nan(ind)  -nan(ind)  -nan(ind)  -nan(ind)  -nan(ind)  -nan(ind)  -nan(ind)  -nan(ind)  -nan(ind)
  C1_85                   1.00   -nan(ind)  -nan(ind)  -nan(ind)  -nan(ind)  -nan(ind)  -nan(ind)  -nan(ind)  -nan(ind)  -nan(ind)
  C1_86                   1.00   -nan(ind)  -nan(ind)  -nan(ind)  -nan(ind)  -nan(ind)  -nan(ind)  -nan(ind)  -nan(ind)  -nan(ind)
  C1_87                   1.00   -nan(ind)  -nan(ind)  -nan(ind)  -nan(ind)  -nan(ind)  -nan(ind)  -nan(ind)  -nan(ind)  -nan(ind)
  C1_88                   1.00   -nan(ind)  -nan(ind)  -nan(ind)  -nan(ind)  -nan(ind)  -nan(ind)  -nan(ind)  -nan(ind)  -nan(ind)
  C1_89                   1.00   -nan(ind)  -nan(ind)  -nan(ind)  -nan(ind)  -nan(ind)  -nan(ind)  -nan(ind)  -nan(ind)  -nan(ind)
  C1_9                    1.00   -nan(ind)  -nan(ind)  -nan(ind)  -nan(ind)  -nan(ind)  -nan(ind)  -nan(ind)  -nan(ind)  -nan(ind)
  C1_90                   1.00   -nan(ind)  -nan(ind)  -nan(ind)  -nan(ind)  -nan(ind)  -nan(ind)  -nan(ind)  -nan(ind)  -nan(ind)
  C1_91                   1.00   -nan(ind)  -nan(ind)  -nan(ind)  -nan(ind)  -nan(ind)  -nan(ind)  -nan(ind)  -nan(ind)  -nan(ind)
  C1_92                   1.00   -nan(ind)  -nan(ind)  -nan(ind)  -nan(ind)  -nan(ind)  -nan(ind)  -nan(ind)  -nan(ind)  -nan(ind)
  C1_93                   1.00   -nan(ind)  -nan(ind)  -nan(ind)  -nan(ind)  -nan(ind)  -nan(ind)  -nan(ind)  -nan(ind)  -nan(ind)
  C1_94                   1.00   -nan(ind)  -nan(ind)  -nan(ind)  -nan(ind)  -nan(ind)  -nan(ind)  -nan(ind)  -nan(ind)  -nan(ind)
  C1_95                   1.00   -nan(ind)  -nan(ind)  -nan(ind)  -nan(ind)  -nan(ind)  -nan(ind)  -nan(ind)  -nan(ind)  -nan(ind)
  C1_96                   1.00   -nan(ind)  -nan(ind)  -nan(ind)  -nan(ind)  -nan(ind)  -nan(ind)  -nan(ind)  -nan(ind)  -nan(ind)
  C1_97                   1.00   -nan(ind)  -nan(ind)  -nan(ind)  -nan(ind)  -nan(ind)  -nan(ind)  -nan(ind)  -nan(ind)  -nan(ind)
  C1_98                   1.00   -nan(ind)  -nan(ind)  -nan(ind)  -nan(ind)  -nan(ind)  -nan(ind)  -nan(ind)  -nan(ind)  -nan(ind)
  C1_99                   1.00   -nan(ind)  -nan(ind)  -nan(ind)  -nan(ind)  -nan(ind)  -nan(ind)  -nan(ind)  -nan(ind)  -nan(ind)
  
  
  *************************
  Conduit Surcharge Summary
  *************************
  
  No conduits were surcharged.
  

  Analysis begun on:  Sat Nov 30 08:11:40 2019
  Analysis ended on:  Sat Nov 30 08:11:40 2019
  Total elapsed time: < 1 sec