
  EPA STORM WATER MANAGEMENT MODEL - VERSION 5.1 (Build 5.1.013)
  --------------------------------------------------------------

  Scenario Run :  RDIIANALYST 
  
  WARNING 01: wet weather time step reduced to recording interval for Rain Gage RAINGAGE-13
  WARNING 03: negative offset ignored for Link 95OF
  WARNING 02: maximum depth increased for Node 25
  WARNING 02: maximum depth increased for Node 255
  WARNING 02: maximum depth increased for Node 26
  WARNING 02: maximum depth increased for Node 261
  WARNING 02: maximum depth increased for Node 276
  WARNING 02: maximum depth increased for Node 31
  WARNING 02: maximum depth increased for Node 74
  WARNING 02: maximum depth increased for Node 77
  WARNING 02: maximum depth increased for Node JCT-10
  WARNING 02: maximum depth increased for Node JCT-160
  WARNING 02: maximum depth increased for Node JCT-162
  WARNING 02: maximum depth increased for Node JCT-164
  WARNING 02: maximum depth increased for Node JCT-166
  WARNING 02: maximum depth increased for Node JCT-168
  WARNING 02: maximum depth increased for Node JCT-170
  WARNING 02: maximum depth increased for Node OVERLANDNODE
  
  **********************           Volume        Volume
  Rainfall Dependent I/I        hectare-m      10^6 ltr
  **********************        ---------     ---------
  Sewershed Rainfall ......         0.000         0.000
  RDII Produced ...........         0.000         0.000
  RDII Ratio ..............         0.000
  
  
  *********************************************************
  NOTE: The summary statistics displayed in this report are
  based on results found at every computational time step,  
  not just on results from each reporting time step.
  *********************************************************
  
  ****************
  Analysis Options
  ****************
  Flow Units ............... LPS
  Process Models:
    Rainfall/Runoff ........ YES
    RDII ................... YES
    Snowmelt ............... NO
    Groundwater ............ NO
    Flow Routing ........... YES
    Ponding Allowed ........ NO
    Water Quality .......... YES
  Infiltration Method ...... GREEN_AMPT
  Flow Routing Method ...... DYNWAVE
  Surcharge Method ......... EXTRAN
  Starting Date ............ 01/01/2010 00:00:00
  Ending Date .............. 01/31/2010 00:00:00
  Antecedent Dry Days ...... 5.0
  Report Time Step ......... 01:00:00
  Wet Time Step ............ 00:01:00
  Dry Time Step ............ 00:05:00
  Routing Time Step ........ 30.00 sec
  Variable Time Step ....... YES
  Maximum Trials ........... 8
  Number of Threads ........ 1
  Head Tolerance ........... 0.000100 m
  
  
  **************************        Volume         Depth
  Runoff Quantity Continuity     hectare-m            mm
  **************************     ---------       -------
  Initial Snow Cover .......         0.000         0.000
  Total Precipitation ......         0.000         0.000
  Evaporation Loss .........         0.000         0.000
  Infiltration Loss ........         0.000         0.000
  Surface Runoff ...........         0.000         0.000
  Snow Removed .............         0.000         0.000
  Final Snow Cover .........         0.000         0.000
  Final Storage ............         0.000         0.000
  Continuity Error (%) .....         0.000
  
  
  **************************            TN           TSS
  Runoff Quality Continuity             kg            kg
  **************************    ----------    ----------
  Initial Buildup ..........         0.000         0.000
  Surface Buildup ..........         0.000         0.000
  Wet Deposition ...........         0.000         0.000
  Sweeping Removal .........         0.000         0.000
  Infiltration Loss ........         0.000         0.000
  BMP Removal ..............         0.000         0.000
  Surface Runoff ...........         0.000         0.000
  Remaining Buildup ........         0.000         0.000
  Continuity Error (%) .....         0.000         0.000
  
  
  **************************        Volume        Volume
  Flow Routing Continuity        hectare-m      10^6 ltr
  **************************     ---------     ---------
  Dry Weather Inflow .......         8.336        83.361
  Wet Weather Inflow .......         0.000         0.000
  Groundwater Inflow .......         0.000         0.000
  RDII Inflow ..............         0.000         0.000
  External Inflow ..........        12.960       129.601
  External Outflow .........        31.927       319.278
  Flooding Loss ............         1.317        13.171
  Evaporation Loss .........         0.569         5.687
  Exfiltration Loss ........         1.300        12.997
  Initial Stored Volume ....         0.000         0.003
  Final Stored Volume ......         1.663        16.629
  Continuity Error (%) .....       -72.686
  
  
  **************************            TN           TSS
  Quality Routing Continuity            kg            kg
  **************************    ----------    ----------
  Dry Weather Inflow .......       416.805      2084.024
  Wet Weather Inflow .......         0.000         0.000
  Groundwater Inflow .......         0.000         0.000
  RDII Inflow ..............         0.000         0.000
  External Inflow ..........         0.000         0.000
  External Outflow .........       246.921      1234.607
  Flooding Loss ............         0.335         1.676
  Exfiltration Loss ........        59.347       296.734
  Mass Reacted .............         0.000         0.000
  Initial Stored Mass ......         0.000         0.000
  Final Stored Mass ........        81.758       408.788
  Continuity Error (%) .....         6.824         6.824
  
  
  *************************
  Highest Continuity Errors
  *************************
  Node 894 (-2400.39%)
  Node 893 (-104.61%)
  Node 257 (100.00%)
  Node 387 (100.00%)
  Node 323 (76.53%)
  
  
  ***************************
  Time-Step Critical Elements
  ***************************
  Link CDT-161 (14.75%)
  
  
  ********************************
  Highest Flow Instability Indexes
  ********************************
  Link 209OFA (23)
  Link 166OF (12)
  Link 269OF (9)
  Link 163OF (8)
  Link CDT-153 (3)
  
  
  *************************
  Routing Time Step Summary
  *************************
  Minimum Time Step           :     3.32 sec
  Average Time Step           :    29.20 sec
  Maximum Time Step           :    30.00 sec
  Percent in Steady State     :    -0.00
  Average Iterations per Step :     3.52
  Percent Not Converging      :    20.72
  
  
  ***************************
  Subcatchment Runoff Summary
  ***************************
  
  ------------------------------------------------------------------------------------------------------------------------------
                            Total      Total      Total      Total     Imperv       Perv      Total       Total     Peak  Runoff
                           Precip      Runon       Evap      Infil     Runoff     Runoff     Runoff      Runoff   Runoff   Coeff
  Subcatchment                 mm         mm         mm         mm         mm         mm         mm    10^6 ltr      LPS
  ------------------------------------------------------------------------------------------------------------------------------
  C10                        0.00       0.00       0.00       0.00       0.00       0.00       0.00        0.00     0.00   0.000
  C13                        0.00       0.00       0.00       0.00       0.00       0.00       0.00        0.00     0.00   0.000
  C15                        0.00       0.00       0.00       0.00       0.00       0.00       0.00        0.00     0.00   0.000
  C20                        0.00       0.00       0.00       0.00       0.00       0.00       0.00        0.00     0.00   0.000
  C25                        0.00       0.00       0.00       0.00       0.00       0.00       0.00        0.00     0.00   0.000
  C30                        0.00       0.00       0.00       0.00       0.00       0.00       0.00        0.00     0.00   0.000
  C33                        0.00       0.00       0.00       0.00       0.00       0.00       0.00        0.00     0.00   0.000
  C35                        0.00       0.00       0.00       0.00       0.00       0.00       0.00        0.00     0.00   0.000
  C45                        0.00       0.00       0.00       0.00       0.00       0.00       0.00        0.00     0.00   0.000
  C50                        0.00       0.00       0.00       0.00       0.00       0.00       0.00        0.00     0.00   0.000
  C55                        0.00       0.00       0.00       0.00       0.00       0.00       0.00        0.00     0.00   0.000
  C57                        0.00       0.00       0.00       0.00       0.00       0.00       0.00        0.00     0.00   0.000
  C60                        0.00       0.00       0.00       0.00       0.00       0.00       0.00        0.00     0.00   0.000
  C65                        0.00       0.00       0.00       0.00       0.00       0.00       0.00        0.00     0.00   0.000
  D10                        0.00       0.00       0.00       0.00       0.00       0.00       0.00        0.00     0.00   0.000
  D15                        0.00       0.00       0.00       0.00       0.00       0.00       0.00        0.00     0.00   0.000
  D20                        0.00       0.00       0.00       0.00       0.00       0.00       0.00        0.00     0.00   0.000
  D21                        0.00       0.00       0.00       0.00       0.00       0.00       0.00        0.00     0.00   0.000
  D22                        0.00       0.00       0.00       0.00       0.00       0.00       0.00        0.00     0.00   0.000
  D25                        0.00       0.00       0.00       0.00       0.00       0.00       0.00        0.00     0.00   0.000
  D30                        0.00       0.00       0.00       0.00       0.00       0.00       0.00        0.00     0.00   0.000
  D32                        0.00       0.00       0.00       0.00       0.00       0.00       0.00        0.00     0.00   0.000
  D35                        0.00       0.00       0.00       0.00       0.00       0.00       0.00        0.00     0.00   0.000
  D40                        0.00       0.00       0.00       0.00       0.00       0.00       0.00        0.00     0.00   0.000
  D45                        0.00       0.00       0.00       0.00       0.00       0.00       0.00        0.00     0.00   0.000
  D50                        0.00       0.00       0.00       0.00       0.00       0.00       0.00        0.00     0.00   0.000
  D55                        0.00       0.00       0.00       0.00       0.00       0.00       0.00        0.00     0.00   0.000
  D60                        0.00       0.00       0.00       0.00       0.00       0.00       0.00        0.00     0.00   0.000
  D65                        0.00       0.00       0.00       0.00       0.00       0.00       0.00        0.00     0.00   0.000
  D70                        0.00       0.00       0.00       0.00       0.00       0.00       0.00        0.00     0.00   0.000
  
  
  ****************************
  Subcatchment Washoff Summary
  ****************************
  
  ------------------------------------------------
                                  TN           TSS
  Subcatchment                    kg            kg
  ------------------------------------------------
  C10                          0.000         0.000
  C13                          0.000         0.000
  C15                          0.000         0.000
  C20                          0.000         0.000
  C25                          0.000         0.000
  C30                          0.000         0.000
  C33                          0.000         0.000
  C35                          0.000         0.000
  C45                          0.000         0.000
  C50                          0.000         0.000
  C55                          0.000         0.000
  C57                          0.000         0.000
  C60                          0.000         0.000
  C65                          0.000         0.000
  D10                          0.000         0.000
  D15                          0.000         0.000
  D20                          0.000         0.000
  D21                          0.000         0.000
  D22                          0.000         0.000
  D25                          0.000         0.000
  D30                          0.000         0.000
  D32                          0.000         0.000
  D35                          0.000         0.000
  D40                          0.000         0.000
  D45                          0.000         0.000
  D50                          0.000         0.000
  D55                          0.000         0.000
  D60                          0.000         0.000
  D65                          0.000         0.000
  D70                          0.000         0.000
  ------------------------------------------------
  System                       0.000         0.000
  
  
  ******************
  Node Depth Summary
  ******************
  
  ---------------------------------------------------------------------------------
                                 Average  Maximum  Maximum  Time of Max    Reported
                                   Depth    Depth      HGL   Occurrence   Max Depth
  Node                 Type       Meters   Meters   Meters  days hr:min      Meters
  ---------------------------------------------------------------------------------
  1001                 JUNCTION     0.00     0.00   216.09    29  09:00        0.00
  105                  JUNCTION     0.00     0.00   206.89     0  08:00        0.00
  13                   JUNCTION     0.00     0.00   210.12    26  08:00        0.00
  136                  JUNCTION     0.57     0.67   203.40    28  12:15        0.66
  137                  JUNCTION     0.01     0.01   210.47    29  07:44        0.01
  140                  JUNCTION     0.23     0.32   203.40    28  12:15        0.32
  144                  JUNCTION     0.74     0.85   203.96     0  00:06        0.75
  147                  JUNCTION     0.01     0.01   209.27     9  07:22        0.01
  15                   JUNCTION     0.00     0.00   209.66    26  08:00        0.00
  150                  JUNCTION     0.00     0.00   207.81    22  08:01        0.00
  158                  JUNCTION     0.00     0.01   204.24    27  12:00        0.01
  166                  JUNCTION     0.44     0.47   204.71    27  12:04        0.47
  173                  JUNCTION     0.01     0.04   204.26     0  12:00        0.04
  179                  JUNCTION     0.00     0.06   203.91     0  00:07        0.00
  18                   JUNCTION     0.00     0.00   211.70     0  09:00        0.00
  183                  JUNCTION     0.00     0.00   204.51    14  12:00        0.00
  19                   JUNCTION     0.00     0.88   205.67     0  00:05        0.02
  200                  JUNCTION     0.00     0.00   210.05     5  21:00        0.00
  201                  JUNCTION     0.02     0.03   211.52    21  21:02        0.03
  205                  JUNCTION     0.67     0.77   203.40    28  12:14        0.77
  209                  JUNCTION     0.40     0.91   205.44    27  21:05        0.91
  232                  JUNCTION     0.05     0.06   204.71    27  12:00        0.06
  244                  JUNCTION     0.00     0.00   206.82     0  12:00        0.00
  25                   JUNCTION     0.00     0.17   205.56     0  00:06        0.00
  255                  JUNCTION     0.00     0.28   204.18     0  00:01        0.00
  257                  JUNCTION     0.36     0.89   205.27    30  00:00        0.89
  26                   JUNCTION     0.15     0.15   202.99    17  12:04        0.15
  260                  JUNCTION     0.00     0.01   204.97     1  08:00        0.01
  261                  JUNCTION     0.00     0.01   205.02    21  12:04        0.01
  267                  JUNCTION     0.00     0.00   212.37    14  12:00        0.00
  269                  JUNCTION     1.39     2.10   205.44    26  21:13        2.10
  276                  JUNCTION     0.00     0.00   207.41     3  12:00        0.00
  281                  JUNCTION     0.04     0.05   205.02    21  12:03        0.05
  285                  JUNCTION     0.00     0.00   207.71     2  08:00        0.00
  297                  JUNCTION     0.00     0.00   205.45    14  09:00        0.00
  304                  JUNCTION     0.00     0.00   205.69    18  13:00        0.00
  306                  JUNCTION     0.00     0.00   207.25    24  12:00        0.00
  31                   JUNCTION     0.00     0.11   204.83     0  00:06        0.00
  32                   JUNCTION     0.00     0.00   212.71    26  08:00        0.00
  323                  JUNCTION     0.25     0.40   207.25    24  12:00        0.40
  325                  JUNCTION     0.00     0.00   206.39    18  13:00        0.00
  33                   JUNCTION     0.01     0.01   211.51    28  07:15        0.01
  333                  JUNCTION     0.10     0.13   206.43    18  13:00        0.13
  348                  JUNCTION     0.00     0.00   208.08     0  09:00        0.00
  351                  JUNCTION     1.16     1.70   207.63    18  12:58        1.70
  371                  JUNCTION     0.00     0.00   212.46     0  08:00        0.00
  384                  JUNCTION     0.02     0.03   207.63    18  13:03        0.03
  387                  JUNCTION     0.24     0.47   211.98    30  00:00        0.47
  393                  JUNCTION     0.02     0.03   209.83    27  07:13        0.03
  4                    JUNCTION     0.00     0.00   210.71     0  10:22        0.00
  407                  JUNCTION     0.00     0.00   215.91     0  09:00        0.00
  46                   JUNCTION     0.02     0.03   209.51    20  08:00        0.03
  56                   JUNCTION     0.02     0.03   208.89    28  07:24        0.03
  64                   JUNCTION     0.01     0.02   209.86    29  07:54        0.02
  7                    JUNCTION     0.00     0.17   205.76     0  00:06        0.00
  74                   JUNCTION     0.00     0.00   202.99     4  12:00        0.00
  76                   JUNCTION     0.02     0.02   209.97    29  07:51        0.02
  77                   JUNCTION     0.00     0.00   203.44     3  07:41        0.00
  879                  JUNCTION     0.00     0.00   212.57    26  08:03        0.00
  882                  JUNCTION     0.00     0.00   211.07    21  21:00        0.00
  893                  JUNCTION     0.00     0.00   214.18     1  06:07        0.00
  894                  JUNCTION     0.00     0.00   214.97     1  05:15        0.00
  95                   JUNCTION     0.01     0.02   211.60    27  07:10        0.02
  956                  JUNCTION     0.00     0.00   211.65     0  08:46        0.00
  974                  JUNCTION     0.00     0.00   205.96    18  13:00        0.00
  982                  JUNCTION     0.05     0.08   206.07    18  13:24        0.08
  JCT-10               JUNCTION     0.04     0.06   204.28    27  12:00        0.06
  JCT-100              JUNCTION     0.02     0.03   218.50    11  08:00        0.03
  JCT-102              JUNCTION     0.03     0.04   218.28    19  07:19        0.04
  JCT-104              JUNCTION     0.03     0.04   217.95     2  08:00        0.04
  JCT-106              JUNCTION     0.04     0.06   217.53    17  07:39        0.06
  JCT-108              JUNCTION     0.03     0.05   217.34     9  08:06        0.05
  JCT-110              JUNCTION     0.02     0.04   216.68     9  08:07        0.04
  JCT-112              JUNCTION     0.00     0.01   219.31     9  11:36        0.01
  JCT-114              JUNCTION     0.02     0.02   219.37    16  08:00        0.02
  JCT-116              JUNCTION     0.01     0.02   219.11     2  07:29        0.02
  JCT-118              JUNCTION     0.02     0.03   217.91    27  08:00        0.03
  JCT-12               JUNCTION     0.04     0.06   204.03    27  12:00        0.06
  JCT-120              JUNCTION     0.02     0.07   217.51     9  12:00        0.07
  JCT-122              JUNCTION     0.02     0.05   217.16     9  12:00        0.05
  JCT-124              JUNCTION     0.02     0.06   215.99     9  12:00        0.06
  JCT-126              JUNCTION     0.02     0.07   214.43     9  12:00        0.07
  JCT-128              JUNCTION     0.01     0.04   213.29    16  11:51        0.04
  JCT-130              JUNCTION     0.00     0.03   218.16     9  11:12        0.03
  JCT-132              JUNCTION     0.00     0.03   218.10     9  11:17        0.03
  JCT-134              JUNCTION     0.01     0.02   217.03     7  07:09        0.02
  JCT-136              JUNCTION     0.00     0.01   215.67    23  08:01        0.01
  JCT-138              JUNCTION     2.81     7.67   214.93    16  07:40        6.93
  JCT-14               JUNCTION     0.02     0.03   203.74     5  12:00        0.03
  JCT-140              JUNCTION     2.20     6.98   214.85    16  07:40        6.32
  JCT-142              JUNCTION     1.29     5.84   214.63    16  07:40        5.40
  JCT-144              JUNCTION     1.14     5.25   214.19     8  11:26        5.25
  JCT-146              JUNCTION     1.09     6.83   215.92     2  23:46        6.61
  JCT-148              JUNCTION     6.56    12.43   215.95    29  03:07       12.19
  JCT-150              JUNCTION     5.85    11.16   215.37    29  03:07       10.71
  JCT-152              JUNCTION     4.34     9.12   214.86    29  03:07        8.49
  JCT-154              JUNCTION     0.05     1.02   211.03    23  07:52        0.38
  JCT-156              JUNCTION     2.60     4.59   211.99     0  20:29        3.45
  JCT-16               JUNCTION     0.01     0.02   212.43     7  07:04        0.02
  JCT-160              JUNCTION     3.57     6.05   207.05     0  00:02        3.58
  JCT-162              JUNCTION     3.34     5.78   206.78     0  00:02        3.41
  JCT-164              JUNCTION     2.57     4.70   205.70     0  00:02        2.75
  JCT-166              JUNCTION     2.34     4.08   205.08     0  00:02        2.64
  JCT-168              JUNCTION     1.73     3.21   204.21     0  00:03        1.99
  JCT-170              JUNCTION     1.40     4.31   205.31     0  00:02        1.60
  JCT-18               JUNCTION     0.02     0.02   210.33     7  07:10        0.02
  JCT-20               JUNCTION     0.01     0.02   208.07     7  07:16        0.02
  JCT-22               JUNCTION     0.04     0.08   204.02    16  08:53        0.07
  JCT-24               JUNCTION     0.01     0.01   214.84    17  07:48        0.01
  JCT-26               JUNCTION     0.02     0.02   213.27    29  07:53        0.02
  JCT-28               JUNCTION     0.02     0.03   208.87    24  07:40        0.03
  JCT-30               JUNCTION     0.06     0.11   204.82     2  08:00        0.11
  JCT-32               JUNCTION     0.01     0.02   216.48     7  07:09        0.02
  JCT-34               JUNCTION     0.02     0.03   214.34     2  07:53        0.03
  JCT-36               JUNCTION     0.03     0.04   209.56    11  07:20        0.04
  JCT-38               JUNCTION     0.05     0.10   205.27     2  08:00        0.10
  JCT-40               JUNCTION     0.00     0.02   214.44     9  12:00        0.02
  JCT-42               JUNCTION     0.02     0.03   213.20     2  08:00        0.03
  JCT-44               JUNCTION     0.02     0.03   212.52     2  08:00        0.03
  JCT-46               JUNCTION     0.03     0.06   207.73     9  08:01        0.06
  JCT-48               JUNCTION     0.04     0.11   205.73     9  12:00        0.11
  JCT-50               JUNCTION     0.00     0.00   220.76     0  00:00        0.00
  JCT-52               JUNCTION     0.00     0.02   219.78    17  11:33        0.02
  JCT-54               JUNCTION     0.01     0.01   218.76    25  11:39        0.01
  JCT-56               JUNCTION     0.02     0.03   209.75    14  08:00        0.03
  JCT-58               JUNCTION     0.02     0.04   209.15     0  08:00        0.04
  JCT-60               JUNCTION     0.03     0.17   208.71    23  07:53        0.15
  JCT-62               JUNCTION     0.01     0.01   221.12    21  07:44        0.01
  JCT-64               JUNCTION     0.01     0.02   216.83    19  07:51        0.02
  JCT-66               JUNCTION     0.02     0.03   212.65    14  08:00        0.03
  JCT-68               JUNCTION     0.03     0.05   210.97     0  07:46        0.05
  JCT-70               JUNCTION     0.01     0.02   218.82    19  08:00        0.02
  JCT-72               JUNCTION     0.02     0.02   216.55    19  08:00        0.02
  JCT-74               JUNCTION     0.03     0.05   213.35    21  08:00        0.05
  JCT-76               JUNCTION     0.03     0.04   212.54     3  08:00        0.04
  JCT-78               JUNCTION     0.01     0.02   217.10    11  07:49        0.02
  JCT-80               JUNCTION     0.02     0.03   216.54    14  08:00        0.03
  JCT-82               JUNCTION     0.01     0.02   217.98    21  08:00        0.02
  JCT-84               JUNCTION     0.02     0.02   217.66    13  08:00        0.02
  JCT-86               JUNCTION     0.01     0.01   221.18    19  07:49        0.01
  JCT-88               JUNCTION     0.01     0.02   220.09    16  07:17        0.02
  JCT-90               JUNCTION     0.01     0.02   219.13    17  07:32        0.02
  JCT-92               JUNCTION     0.02     0.02   218.07    17  07:30        0.02
  JCT-94               JUNCTION     0.01     0.04   216.75     9  11:29        0.04
  JCT-96               JUNCTION     0.02     0.03   214.00     5  08:31        0.03
  JCT-98               JUNCTION     0.01     0.02   219.72    17  07:25        0.02
  OVERLAND             JUNCTION     0.00     0.00   211.00     0  00:00        0.00
  OVERLANDNODE         JUNCTION     0.00     0.00   212.00     0  00:00        0.00
  OFALL-10             OUTFALL      0.03     0.17   207.43    23  07:52        0.15
  OFALL-12             OUTFALL      0.01     1.94   203.72     0  00:01        0.11
  VIADUCT1             OUTFALL      0.00     0.00   212.14     1  06:06        0.00
  VIADUCT2             OUTFALL      0.00     0.00   210.92     0  00:00        0.00
  1114                 STORAGE      0.00     0.00   208.37     0  00:00        0.00
  1115                 STORAGE      0.00     0.00   208.03     0  00:00        0.00
  117                  STORAGE      0.09     0.16   203.40    28  12:12        0.16
  163                  STORAGE      0.20     0.33   203.98     0  00:06        0.21
  17                   STORAGE      0.00     0.00   208.16    16  07:58        0.00
  187                  STORAGE      0.00     0.01   204.71    27  12:04        0.01
  229                  STORAGE      0.00     0.01   205.44    27  21:14        0.01
  421                  STORAGE      0.00     0.00   215.05     0  00:00        0.00
  83                   STORAGE      0.79     1.01   202.33    29  00:26        1.01
  989                  STORAGE      0.00     0.00   208.49     0  07:56        0.00
  STOR-10              STORAGE      0.31     0.61   207.87    13  08:05        0.61
  STOR-12              STORAGE      0.30     0.61   209.40     9  08:21        0.61
  STOR-14              STORAGE      0.30     0.61   201.02    18  07:15        0.61
  STOR-16              STORAGE      2.25     4.58   203.56    29  11:30        4.57
  
  
  *******************
  Node Inflow Summary
  *******************
  
  -------------------------------------------------------------------------------------------------
                                  Maximum  Maximum                  Lateral       Total        Flow
                                  Lateral    Total  Time of Max      Inflow      Inflow     Balance
                                   Inflow   Inflow   Occurrence      Volume      Volume       Error
  Node                 Type           LPS      LPS  days hr:min    10^6 ltr    10^6 ltr     Percent
  -------------------------------------------------------------------------------------------------
  1001                 JUNCTION      0.32     0.32     0  07:00       0.401       0.401       0.168
  105                  JUNCTION      0.21     1.69    28  07:26       0.264        2.13       0.023
  13                   JUNCTION      0.23     0.25     4  08:00       0.296       0.341       0.114
  136                  JUNCTION      2.84    86.86     0  00:26       0.971        10.3      13.345
  137                  JUNCTION      0.37     0.38    26  08:00       0.468       0.486       0.009
  140                  JUNCTION      3.94   112.53     0  00:15        1.34        13.7       2.396
  144                  JUNCTION      1.46 13096.27     0  00:01       0.498        2.18      38.384
  147                  JUNCTION      0.41     0.42     5  08:00       0.517       0.538      -0.006
  15                   JUNCTION      0.44     0.66    26  08:00       0.548        0.85       0.031
  150                  JUNCTION      0.65     1.27    17  07:15       0.824         1.6       0.110
  158                  JUNCTION      4.05    16.60    27  12:00        1.38        7.07       0.035
  166                  JUNCTION      9.28     9.28     2  07:00        2.93        3.07       8.300
  173                  JUNCTION      1.14     3.12    27  12:00       0.389       0.764      -0.046
  179                  JUNCTION      1.54  1375.95     0  00:06       0.527        2.31      -0.295
  18                   JUNCTION      0.10     1.47     0  00:01       0.126       0.175       0.242
  183                  JUNCTION      1.39    16.39    26  07:00       0.473       0.615      -0.358
  19                   JUNCTION      0.00 34375.67     0  00:03    0.000267        6.27       2.789
  200                  JUNCTION      0.62     4.07    21  21:00       0.776        5.21       0.055
  201                  JUNCTION      0.10     0.95     0  08:46       0.128        1.08       0.920
  205                  JUNCTION      3.30   706.85     0  00:07        1.13        3.22      34.537
  209                  JUNCTION      0.66     9.39    27  11:39       0.827        6.55      72.465
  232                  JUNCTION      3.53    11.15    26  12:00         1.2        9.29       0.891
  244                  JUNCTION      2.16     2.17    14  12:00       0.736       0.756      -0.208
  25                   JUNCTION      0.00  3447.92     0  00:05    7.06e-05       0.551      -0.933
  255                  JUNCTION      4.59 69461.40     0  00:01        1.57        4.02     -10.320
  257                  JUNCTION      0.04     1.08     0  12:00      0.0479       0.406  405951.721 ltr
  26                   JUNCTION      0.48  2000.83     0  00:06       0.605        1.22      69.155
  260                  JUNCTION      4.16     5.28    23  08:00        1.31        2.21       0.162
  261                  JUNCTION      0.05     4.05    26  12:00      0.0185       0.911       0.079
  267                  JUNCTION      0.49     0.49     0  11:00       0.169       0.169      -3.365
  269                  JUNCTION      1.21    13.47    26  21:15       0.382        4.75     186.068
  276                  JUNCTION      4.15     4.17    14  12:00        1.42        1.45      -0.022
  281                  JUNCTION      3.29     7.94    21  12:00        1.04        5.79       2.257
  285                  JUNCTION      0.15     0.15     0  07:00       0.187       0.187      -0.227
  297                  JUNCTION      0.12     0.18    25  08:00       0.146       0.247       0.103
  304                  JUNCTION      0.03     0.07    18  13:00      0.0367       0.101       0.003
  306                  JUNCTION      2.25     4.62    28  12:00       0.768        1.01      -0.479
  31                   JUNCTION      0.13  2382.27     0  00:06       0.159       0.656       0.079
  32                   JUNCTION      0.04     0.04     0  07:00      0.0467      0.0467      -0.005
  323                  JUNCTION      2.35    30.26     0  00:00       0.801         1.1     325.994
  325                  JUNCTION      0.05     3.63    18  13:00      0.0639        3.74       0.018
  33                   JUNCTION      0.69     0.69     0  07:00       0.875       0.875       0.004
  333                  JUNCTION      0.41     3.62    18  13:00       0.514        3.68       0.096
  348                  JUNCTION      0.76     2.41     0  08:51       0.958        2.87       0.023
  351                  JUNCTION      0.37     4.18     3  09:00       0.461        5.38      83.163
  371                  JUNCTION      0.16     0.16     0  07:00       0.205       0.205      -0.213
  384                  JUNCTION      0.28     5.56    13  11:08       0.349        3.29       1.199
  387                  JUNCTION      0.14     0.64     0  08:00       0.181       0.779  779496.723 ltr
  393                  JUNCTION      1.62     1.62     0  07:00        2.04        2.04       0.004
  4                    JUNCTION      0.00     1.15     0  00:00           0      0.0897       0.262
  407                  JUNCTION      0.32     0.55    26  08:00       0.402       0.693       0.082
  46                   JUNCTION      0.47     1.35    29  07:54       0.594         1.7       0.015
  56                   JUNCTION      1.08     1.48    28  07:15        1.36        1.86       0.012
  64                   JUNCTION      0.23     0.88    29  07:52       0.295        1.11       0.004
  7                    JUNCTION      0.42  8074.97     0  00:02       0.143        3.89       0.234
  74                   JUNCTION      0.15     1.85    17  11:52        0.19       0.994       0.131
  76                   JUNCTION      0.32     0.65    29  07:44       0.399       0.812       0.017
  77                   JUNCTION      2.16     2.16     0  11:00       0.739       0.739      -0.663
  879                  JUNCTION      0.06     0.48     0  00:03      0.0723      0.0965       0.083
  882                  JUNCTION      0.27     1.00    21  21:00       0.343        1.41       0.057
  893                  JUNCTION      0.01     2.25     1  06:06       0.005     0.00517     -51.127
  894                  JUNCTION      0.02     0.02     2  07:00     0.00566     0.00566     -96.001
  95                   JUNCTION      0.61     0.61     0  07:00       0.773       0.773       0.001
  956                  JUNCTION      6.03     6.03     0  07:00        7.21        7.21      -0.044
  974                  JUNCTION      0.19     3.61    18  13:00        0.24        3.99       0.043
  982                  JUNCTION      0.04     3.65    18  13:00       0.054        3.77       0.582
  JCT-10               JUNCTION      2.23     7.68    27  12:00        0.76        8.85       0.012
  JCT-100              JUNCTION      0.33     0.88    11  07:25       0.421         1.1       0.017
  JCT-102              JUNCTION      0.42     1.30    11  08:00       0.533        1.63       0.004
  JCT-104              JUNCTION      0.22     1.57     2  07:21       0.274        1.91       0.022
  JCT-106              JUNCTION      0.05     1.62     2  08:00      0.0677        1.98       0.019
  JCT-108              JUNCTION      1.27     2.77     9  08:03       0.156        2.14       0.014
  JCT-110              JUNCTION      0.21     2.94     9  08:06       0.259         2.4       0.006
  JCT-112              JUNCTION      0.06     0.06     2  11:00     0.00698     0.00698      -0.582
  JCT-114              JUNCTION      0.41     0.41     0  07:00       0.516       0.516       0.015
  JCT-116              JUNCTION      0.36     0.36     0  07:00        0.45        0.45       0.001
  JCT-118              JUNCTION      0.49     0.85     2  07:29       0.616        1.07       0.007
  JCT-12               JUNCTION      0.74     6.44    27  12:00       0.253        8.73       0.022
  JCT-120              JUNCTION      1.55     3.24     9  12:00        0.19        1.39       0.030
  JCT-122              JUNCTION      0.43     3.55     9  12:00       0.544        1.93       0.006
  JCT-124              JUNCTION      0.96     5.80     9  12:00       0.118        2.21       0.015
  JCT-126              JUNCTION      0.08     5.86     9  12:00      0.0986        2.31       0.008
  JCT-128              JUNCTION      0.12     6.13    16  11:50      0.0426        2.35       0.002
  JCT-130              JUNCTION      1.29     1.29     2  11:00       0.158       0.158      -0.023
  JCT-132              JUNCTION      1.09     1.09     2  11:00       0.134       0.134      -0.024
  JCT-134              JUNCTION      0.28     0.28     0  07:00        0.35        0.35       0.002
  JCT-136              JUNCTION      0.38     0.62    23  08:00      0.0469       0.397       0.004
  JCT-138              JUNCTION      0.27    99.39     6  07:16       0.344        8.31       0.636
  JCT-14               JUNCTION      0.09     6.52    27  12:00      0.0294        8.75       0.005
  JCT-140              JUNCTION      0.34   112.34    22  09:28       0.434        8.98       0.992
  JCT-142              JUNCTION      0.32   195.18    16  07:40       0.406        11.5       0.671
  JCT-144              JUNCTION      0.12   195.42    16  07:40       0.157        11.3       0.766
  JCT-146              JUNCTION      0.05   178.25    16  07:39      0.0576        11.8       2.582
  JCT-148              JUNCTION      0.86   368.07    23  07:17       0.105        20.4       0.573
  JCT-150              JUNCTION      2.11   249.05     8  11:34       0.258        20.2       0.788
  JCT-152              JUNCTION      0.95   250.07     8  11:33       0.116        20.3       0.707
  JCT-154              JUNCTION      0.12   341.55    23  07:46       0.147        38.2       0.070
  JCT-156              JUNCTION      0.04    97.45     0  20:25      0.0506        18.2       0.128
  JCT-16               JUNCTION      0.93     0.93     0  07:00        1.17        1.17       0.000
  JCT-160              JUNCTION     50.00   273.52     0  00:12         130         130      -6.536
  JCT-162              JUNCTION      0.00 36430.84     0  00:02           0         140     -15.882
  JCT-164              JUNCTION      0.00 93788.66     0  00:05           0         170     -20.847
  JCT-166              JUNCTION      0.00 79110.78     0  00:04           0         209     -10.975
  JCT-168              JUNCTION      0.00106989.73     0  00:02           0         225      -4.222
  JCT-170              JUNCTION      0.00 95827.64     0  00:02           0         233     -15.736
  JCT-18               JUNCTION      0.07     1.00     7  07:04       0.083        1.26       0.008
  JCT-20               JUNCTION      0.01     1.00     7  07:12     0.00633        1.26       0.008
  JCT-22               JUNCTION      1.07    21.85     2  08:00        1.34        18.4       0.004
  JCT-24               JUNCTION      0.19     0.19     0  07:00       0.243       0.243       0.011
  JCT-26               JUNCTION      1.40     1.59     0  07:49        1.76           2       0.005
  JCT-28               JUNCTION      1.83     3.43     1  07:53        2.31        4.31       0.002
  JCT-30               JUNCTION      1.17    19.78     2  08:00        1.47        15.8       0.008
  JCT-32               JUNCTION      0.90     0.90     0  07:00        1.13        1.13       0.003
  JCT-34               JUNCTION      1.45     2.35     7  07:09        1.82        2.96       0.006
  JCT-36               JUNCTION      1.89     4.24     1  07:31        2.38        5.34       0.002
  JCT-38               JUNCTION      0.27    15.18     2  08:00        0.34        9.99       0.010
  JCT-40               JUNCTION      0.33     0.33     2  11:00      0.0401      0.0401      -0.005
  JCT-42               JUNCTION      0.59     0.87     2  08:00       0.748       0.788       0.017
  JCT-44               JUNCTION      1.89     2.76     2  08:00        2.38        3.17       0.003
  JCT-46               JUNCTION      5.16     7.39    23  08:00       0.632         3.8       0.006
  JCT-48               JUNCTION      4.13    11.39     9  12:00       0.506        4.31       0.010
  JCT-50               JUNCTION      0.00     0.00     0  00:00           0           0       0.000 ltr
  JCT-52               JUNCTION      0.73     0.73     0  11:00       0.249       0.249       0.053
  JCT-54               JUNCTION      0.29     0.93     4  11:35       0.365       0.613       0.001
  JCT-56               JUNCTION      0.29     1.20    11  08:00       0.366       0.979       0.014
  JCT-58               JUNCTION      0.27     1.47     5  08:00       0.341        1.32       0.001
  JCT-60               JUNCTION      0.21   322.20    23  07:52      0.0712        45.2       0.036
  JCT-62               JUNCTION      0.38     0.38     0  07:00       0.483       0.483       0.004
  JCT-64               JUNCTION      0.40     0.79     0  07:50       0.508       0.991       0.007
  JCT-66               JUNCTION      0.39     1.17     0  07:53       0.487        1.48       0.008
  JCT-68               JUNCTION      0.23     4.67    26  07:37       0.295        5.87       0.005
  JCT-70               JUNCTION      0.55     0.96    11  08:00       0.694        1.21       0.009
  JCT-72               JUNCTION      0.29     1.25    11  08:00       0.361        1.57       0.004
  JCT-74               JUNCTION      0.34     3.23    11  08:00       0.423        4.07       0.010
  JCT-76               JUNCTION      0.02     3.26     3  07:54      0.0303         4.1       0.007
  JCT-78               JUNCTION      0.47     0.47     0  07:00       0.594       0.594       0.002
  JCT-80               JUNCTION      0.38     1.65    11  08:00       0.474        2.07       0.010
  JCT-82               JUNCTION      0.27     0.27     0  07:00       0.343       0.343       0.008
  JCT-84               JUNCTION      0.53     0.80    11  08:00       0.664        1.01       0.010
  JCT-86               JUNCTION      0.20     0.20     0  07:00       0.252       0.252       0.001
  JCT-88               JUNCTION      0.24     0.44    13  07:49       0.296       0.548       0.008
  JCT-90               JUNCTION      0.02     0.45    17  07:20     0.00577       0.553       0.023
  JCT-92               JUNCTION      0.34     0.78    17  07:32       0.422       0.975       0.006
  JCT-94               JUNCTION      2.07     2.62    23  08:00       0.253        1.23       0.012
  JCT-96               JUNCTION      3.59     6.16    17  07:50         4.3        7.92       0.006
  JCT-98               JUNCTION      0.54     0.54     0  07:00        0.68        0.68      -0.000
  OVERLAND             JUNCTION      0.00     0.00     0  00:00           0           0       0.000 ltr
  OVERLANDNODE         JUNCTION      0.00     0.00     0  00:00           0           0       0.000 ltr
  OFALL-10             OUTFALL       0.00   322.10    23  07:52           0        45.2       0.000
  OFALL-12             OUTFALL       0.00669110.01     0  00:01           0         273       0.000
  VIADUCT1             OUTFALL       0.00     4.48     1  06:06           0    0.000711       0.000
  VIADUCT2             OUTFALL       0.00     3.81     0  00:00           0        0.73       0.000
  1114                 STORAGE       0.00     0.00     0  00:00           0           0       0.000 ltr
  1115                 STORAGE       0.00     0.00     0  00:00           0           0       0.000 ltr
  117                  STORAGE       0.00   431.71     0  00:07           0        13.9       1.071
  163                  STORAGE       0.00  4199.48     0  00:04           0        2.17      13.498
  17                   STORAGE       0.00     2.30    22  08:00           0         2.9       0.048
  187                  STORAGE       0.00    14.25    23  08:00           0        7.92       0.267
  229                  STORAGE       0.00    13.53    28  20:11           0        2.79       0.155
  421                  STORAGE       0.00     0.00     0  00:00           0           0       0.000 ltr
  83                   STORAGE       0.00 16047.00     0  00:01           0        16.3      21.849
  989                  STORAGE       0.00     1.62    14  07:15           0        2.04       0.020
  STOR-10              STORAGE       0.00     6.31    14  07:45           0        7.92       0.050
  STOR-12              STORAGE       0.00     6.22    16  11:52           0        2.35       0.103
  STOR-14              STORAGE       0.00     6.71    27  12:00           0        9.15       0.237
  STOR-16              STORAGE       0.00    22.96    16  08:55           0        18.4       0.166
  
  
  **********************
  Node Surcharge Summary
  **********************
  
  Surcharging occurs when water rises above the top of the highest conduit.
  ---------------------------------------------------------------------
                                               Max. Height   Min. Depth
                                   Hours       Above Crown    Below Rim
  Node                 Type      Surcharged         Meters       Meters
  ---------------------------------------------------------------------
  144                  JUNCTION      719.94          0.244        1.051
  257                  JUNCTION       86.15          0.284        3.837
  269                  JUNCTION      463.55          0.878        2.088
  351                  JUNCTION      424.07          0.864        1.919
  JCT-138              JUNCTION      714.37          7.212        1.970
  JCT-140              JUNCTION      707.55          6.518        2.317
  JCT-142              JUNCTION      699.21          5.387        1.763
  JCT-144              JUNCTION      699.11          4.794        0.000
  JCT-146              JUNCTION      699.26          6.374        0.000
  JCT-148              JUNCTION      707.33         11.975        0.211
  JCT-150              JUNCTION      707.28         10.701        2.938
  JCT-152              JUNCTION      707.09          8.663        1.437
  JCT-154              JUNCTION        0.17          0.567        1.107
  JCT-156              JUNCTION      699.52          4.128        0.000
  JCT-160              JUNCTION        0.01          0.000        0.000
  JCT-162              JUNCTION        0.01          0.000        0.000
  JCT-164              JUNCTION        0.01          0.000        0.000
  JCT-166              JUNCTION        0.14          0.000        0.000
  JCT-170              JUNCTION        0.01          0.000        0.000
  OVERLAND             JUNCTION      720.00          0.000        3.067
  
  
  *********************
  Node Flooding Summary
  *********************
  
  Flooding refers to all water that overflows a node, whether it ponds or not.
  --------------------------------------------------------------------------
                                                             Total   Maximum
                                 Maximum   Time of Max       Flood    Ponded
                        Hours       Rate    Occurrence      Volume     Depth
  Node                 Flooded       LPS   days hr:min    10^6 ltr    Meters
  --------------------------------------------------------------------------
  JCT-144                 0.59     49.15      8  11:26       0.015     0.000
  JCT-146                 0.85     27.37     29  03:07       0.052     0.000
  JCT-162                 0.01  11301.59      0  00:02       0.154     0.000
  JCT-164                 0.01  21573.04      0  00:02       0.245     0.000
  JCT-166                 0.14  37765.30      0  00:04      12.719     0.000
  
  
  **********************
  Storage Volume Summary
  **********************
  
  --------------------------------------------------------------------------------------------------
                         Average     Avg  Evap Exfil       Maximum     Max    Time of Max    Maximum
                          Volume    Pcnt  Pcnt  Pcnt        Volume    Pcnt     Occurrence    Outflow
  Storage Unit           1000 m3    Full  Loss  Loss       1000 m3    Full    days hr:min        LPS
  --------------------------------------------------------------------------------------------------
  1114                     0.000       0     0     0         0.000       0       0  00:00       0.00
  1115                     0.000       0     0     0         0.000       0       0  00:00       0.00
  117                      0.000       0     0     0         0.001       0      28  12:12     113.51
  163                      0.001       0     0     0         0.001       0       0  00:06    1375.96
  17                       0.000       0     0     0         0.000       0      16  07:58       9.21
  187                      0.000       0     0     0         0.000       0      27  12:04      12.92
  229                      0.000       0     0     0         0.000       0      27  21:14       8.63
  421                      0.000       0     0     0         0.000       0       0  00:00       0.00
  83                       0.834       2     2    67         2.170       5      29  00:26       7.39
  989                      0.000       0     0     0         0.000       0       0  07:56       1.62
  STOR-10                  0.069       3     0     0         0.136       6      13  08:05      99.13
  STOR-12                  0.034       4     0     0         0.068       8       9  08:21      99.12
  STOR-14                  0.283       2     1     0         0.566       4      18  07:15     368.07
  STOR-16                  0.209      23     0     0         0.425      47      29  11:30      97.40
  
  
  ***********************
  Outfall Loading Summary
  ***********************
  
  ---------------------------------------------------------------------------------------
                         Flow       Avg       Max       Total         Total         Total
                         Freq      Flow      Flow      Volume            TN           TSS
  Outfall Node           Pcnt       LPS       LPS    10^6 ltr            kg            kg
  ---------------------------------------------------------------------------------------
  OFALL-10              99.97     20.63    322.10      45.221       228.508      1142.542
  OFALL-12              99.99    135.43 669110.01     273.325        14.436        72.178
  VIADUCT1               0.01      1.97      4.48       0.001         0.003         0.015
  VIADUCT2              69.99      0.40      3.81       0.730         3.981        19.904
  ---------------------------------------------------------------------------------------
  System                67.49    158.45 669110.02     319.276       246.928      1234.639
  
  
  ********************
  Link Flow Summary
  ********************
  
  -----------------------------------------------------------------------------
                                 Maximum  Time of Max   Maximum    Max/    Max/
                                  |Flow|   Occurrence   |Veloc|    Full    Full
  Link                 Type          LPS  days hr:min     m/sec    Flow   Depth
  -----------------------------------------------------------------------------
  1001OF               CONDUIT      0.23    26  09:00      0.00    0.00    0.00
  105OF                CONDUIT      1.97     0  00:00      0.00    0.00    0.50
  1114                 CONDUIT      0.00     0  00:00      0.00    0.00    0.41
  117                  CONDUIT     16.91    28  12:12      0.12    0.00    0.19
  117OF                CONDUIT      0.97     3  07:01      0.02    0.00    0.13
  1209                 CONDUIT      0.83    21  21:02      0.55    0.00    0.03
  1211                 CONDUIT      0.01    21  21:00      0.03    0.00    0.02
  1225                 CONDUIT      0.33    29  07:44      0.13    0.00    0.03
  1226                 CONDUIT      0.00    26  08:00      0.00    0.00    0.00
  1228                 CONDUIT      0.00     0  00:00      0.00    0.00    0.00
  1230                 CONDUIT      0.00     1  06:07      0.00    0.00    0.05
  1249                 CONDUIT      1.62    14  07:15      0.80    0.00    0.02
  1269                 CONDUIT      0.02     0  16:05      0.00    0.00    0.01
  1270                 CONDUIT      0.06     5  08:00      0.11    0.00    0.03
  1275                 CONDUIT      0.00     0  10:22      0.00    0.00    0.00
  1276                 CONDUIT      0.00    26  08:00      0.00    0.00    0.00
  1277                 CONDUIT      1.35    29  07:54      0.61    0.00    0.02
  1281                 CONDUIT      0.01    22  08:01      0.04    0.00    0.01
  1284                 CONDUIT      0.42    10  08:00      0.76    0.00    0.51
  1285                 CONDUIT      1.06    26  07:43      0.04    0.00    1.00
  1288                 CONDUIT      5.35    13  11:08      0.03    0.00    0.52
  1289                 CONDUIT      3.35    18  13:03      0.13    0.00    0.09
  1290                 CONDUIT      0.00    14  09:00      0.01    0.00    0.50
  1291                 CONDUIT      0.07    18  13:00      0.00    0.00    0.00
  1293                 CONDUIT      0.09    26  12:02      0.01    0.00    0.03
  1294                 CONDUIT      0.02    24  12:00      0.05    0.00    0.09
  1297                 CONDUIT      0.00     0  08:00      0.00    0.00    0.50
  1298                 CONDUIT      0.00     0  08:00      0.00    0.00    0.50
  1299                 CONDUIT      0.40    28  07:15      0.19    0.01    0.09
  1300                 CONDUIT      1.48    28  07:26      0.98    0.01    0.05
  1306                 CONDUIT      0.02     3  07:42      0.00    0.00    0.34
  1307                 CONDUIT      2.81     0  00:13      0.65    0.01    0.27
  1308                 CONDUIT      4.88     2  22:59      0.09    0.01    0.60
  1312                 CONDUIT      0.00     4  08:00      0.00    0.00    0.00
  1314                 CONDUIT      0.01     0  12:00      0.04    0.00    0.50
  1315                 CONDUIT    102.70     0  00:06      0.28    0.05    0.48
  1316                 CONDUIT      0.30    16  07:56      0.65    0.00    0.03
  1317                 CONDUIT      0.27    27  12:00      0.24    0.00    0.01
  1328                 CONDUIT      0.02     3  12:00      0.10    0.00    0.13
  136OF                CONDUIT     86.71     0  00:26      0.19    0.01    0.76
  13OF                 CONDUIT      0.22    26  08:00      0.00    0.00    0.00
  140OF                CONDUIT    110.27     0  00:15      0.18    0.01    0.39
  144                  CONDUIT    345.54     0  00:01      2.75    0.56    0.64
  144OF                CONDUIT  12750.73     0  00:01      3.02    0.39    0.64
  150OF                CONDUIT      3.82     0  00:01      0.02    0.00    0.00
  158                  CONDUIT      0.26    27  12:00      0.01    0.00    0.34
  158OF                CONDUIT     16.21    27  12:00      0.01    0.00    0.50
  15OF                 CONDUIT      2.11     0  00:01      0.00    0.00    0.00
  163OF                CONDUIT   4055.46     0  00:04      0.69    0.13    0.77
  166OF                CONDUIT     11.35    22  07:01      0.02    0.00    0.40
  1791OF               CONDUIT   1347.08     0  00:06      0.46    0.07    0.32
  179OF                CONDUIT    431.71     0  00:07      0.69    0.02    0.13
  17OF                 CONDUIT      9.16     0  00:01      0.00    0.00    0.14
  183OF                CONDUIT      1.77    14  12:00      0.00    0.00    0.27
  187OF                CONDUIT     12.29    27  12:00      0.09    0.00    0.01
  18OF                 CONDUIT      1.15     0  00:00      0.00    0.00    0.00
  191OF                CONDUIT   1726.46     0  00:06      0.28    0.11    0.64
  19OF                 CONDUIT   3139.87     0  00:05      0.55    0.19    0.64
  200                  CONDUIT      0.02     5  21:00      0.06    0.00    0.02
  200OF                CONDUIT      3.95     5  21:00      0.07    0.00    0.50
  201OF                CONDUIT      0.86     0  08:46      0.01    0.00    0.02
  205OF                CONDUIT    694.23     0  00:07      0.90    0.02    0.50
  209OFA               CONDUIT     12.81    26  21:15      0.02    0.00    0.87
  229OF                CONDUIT      5.28    27  21:14      0.06    0.00    0.01
  229OFB               CONDUIT      0.02    26  13:02      0.06    0.00    0.02
  232OF                CONDUIT      5.52    21  12:00      0.01    0.00    0.06
  244OF                CONDUIT      2.53     0  00:00      0.00    0.00    0.50
  257OF                CONDUIT      1.05     0  12:00      0.02    0.00    0.50
  25OF                 CONDUIT   2265.19     0  00:06      1.16    0.11    0.22
  2601OF               CONDUIT      3.98    26  12:06      0.04    0.00    0.01
  260OF                CONDUIT      4.92    23  09:00      0.04    0.00    0.01
  267OF                CONDUIT     15.21    26  07:00      0.00    0.00    0.00
  269OF                CONDUIT     12.85    28  20:11      0.01    0.00    0.50
  276OF                CONDUIT      4.11     3  12:00      0.05    0.00    0.05
  281OF                CONDUIT      3.93    26  12:02      0.01    0.00    0.05
  2851OF               CONDUIT      1.59     0  00:00      0.00    0.00    0.00
  285OF                CONDUIT      0.98     0  00:00      0.00    0.00    0.00
  297OF                CONDUIT      0.68     0  00:00      0.00    0.00    0.04
  306OF                CONDUIT      4.56    24  12:00      0.03    0.00    0.05
  3084                 CONDUIT      0.03     0  07:57      0.06    0.00    0.50
  3091                 CONDUIT      0.08     0  09:00      0.10    0.00    0.50
  31OF                 CONDUIT   1930.81     0  00:06      1.79    0.04    0.15
  3231OF               CONDUIT      1.66     0  00:00      0.00    0.00    0.16
  323OF                CONDUIT      3.44    28  12:02      0.01    0.00    0.33
  325OF                CONDUIT      3.55    18  13:00      0.01    0.00    0.06
  3289                 CONDUIT      3.60    18  13:00      0.19    0.01    0.08
  3293                 CONDUIT      0.07    18  13:00      0.05    0.00    0.05
  32OF                 CONDUIT      0.47     0  00:03      0.00    0.00    0.00
  3339                 CONDUIT      2.43    18  13:24      0.26    0.01    0.05
  3349                 CONDUIT      0.05    18  13:00      0.13    0.00    0.00
  3355                 CONDUIT      0.00    26  09:00      0.00    0.00    0.00
  3423                 CONDUIT      0.65    29  07:52      0.19    0.00    0.03
  3424                 CONDUIT      0.88    29  07:54      0.21    0.00    0.03
  348OF                CONDUIT      2.32     0  09:00      0.01    0.00    0.50
  3493                 CONDUIT      0.61    17  07:15      0.91    0.00    0.02
  3510                 CONDUIT      0.01     0  03:05      0.01    0.00    0.00
  3511                 CONDUIT      0.04    26  13:02      0.12    0.00    0.01
  351OF                CONDUIT      0.00     0  00:00      0.00    0.00    0.50
  3521                 CONDUIT      0.05    21  08:40      0.02    0.00    0.50
  3527                 CONDUIT      0.00     0  09:00      0.02    0.00    0.50
  3629                 CONDUIT      0.00    26  08:04      0.00    0.00    0.00
  3656                 CONDUIT      0.09    23  09:00      0.09    0.00    0.01
  3682                 CONDUIT      0.25    22  07:01      0.04    0.00    0.52
  3690                 CONDUIT      3.50    21  12:03      0.32    0.01    0.08
  371OF                CONDUIT     28.60     0  00:00      0.00    0.00    0.33
  3843                 CONDUIT      0.00     0  09:08      0.00    0.00    0.00
  384OF                CONDUIT      0.00     0  00:00      0.00    0.00    0.03
  3860                 CONDUIT      0.02    26  08:00      0.00    0.00    0.00
  3873                 CONDUIT      0.01     0  08:00      0.01    0.00    0.50
  387OF                CONDUIT      0.04     0  08:00      0.00    0.00    0.19
  4030                 CONDUIT      3.12    27  12:00      1.22    0.00    0.16
  4043                 CONDUIT      0.01     0  12:00      0.00    0.00    0.50
  407OF                CONDUIT      0.46     0  09:00      0.01    0.00    0.38
  4103                 CONDUIT      0.05     0  00:01      0.02    0.00    0.11
  4117                 CONDUIT    309.12     0  00:05      0.77    0.14    0.47
  4130                 CONDUIT    117.82     0  00:06      1.93    0.04    0.13
  4155                 CONDUIT     12.62     0  00:07      1.38    0.06    0.50
  4195                 CONDUIT      0.05     3  07:44      0.00    0.00    0.00
  4202                 CONDUIT      0.01    14  12:00      0.00    0.00    0.36
  4203                 CONDUIT     28.86     0  00:06      0.52    0.21    0.51
  421OF                CONDUIT      0.00     0  00:00      0.00    0.00    0.00
  4220                 CONDUIT     71.93     0  00:07      2.98    0.02    0.10
  4232                 CONDUIT    144.02     0  00:04      0.77    0.18    0.77
  4OF                  CONDUIT      0.07     0  00:00      0.00    0.00    0.00
  5002                 CONDUIT      5.46    27  12:00      0.46    0.02    0.08
  5003                 CONDUIT      0.00    14  12:00      0.00    0.00    0.00
  77OF                 CONDUIT      1.27     4  12:00      0.00    0.00    0.00
  7OF                  CONDUIT   8074.97     0  00:02      1.68    0.67    0.64
  879OF                CONDUIT      1.45     0  00:01      0.00    0.00    0.00
  882OF                CONDUIT      0.91    21  21:00      0.00    0.00    0.00
  893OF                CONDUIT      0.01     1  06:07      0.00    0.00    0.03
  8941OF               CONDUIT      4.48     1  06:06      0.00    0.00    0.00
  894OF                CONDUIT      2.25     1  06:06      0.00    0.00    0.00
  9561OF               CONDUIT      1.75     0  08:51      0.00    0.00    0.00
  9562OF               CONDUIT      3.81     0  00:00      0.00    0.00    0.00
  956OF                CONDUIT      2.74     0  16:05      0.00    0.00    0.00
  95OF                 CONDUIT      0.00     0  00:00      0.00    0.00    0.00
  974OF                CONDUIT      3.50    18  13:00      0.01    0.00    0.05
  982OF                CONDUIT      1.08    18  13:24      0.14    0.01    0.06
  989OF                CONDUIT      1.56     0  07:57      0.01    0.00    0.50
  CDT-101              CONDUIT      1.31    19  07:26      0.33    0.16    0.27
  CDT-103              CONDUIT      1.56     2  08:00      0.33    0.16    0.34
  CDT-105              CONDUIT      1.62     9  08:03      0.29    0.26    0.35
  CDT-107              CONDUIT      2.76     9  08:06      0.62    0.23    0.29
  CDT-109              CONDUIT      2.93     9  08:08      0.98    0.12    0.22
  CDT-11               CONDUIT      5.70    27  12:00      0.33    0.01    0.06
  CDT-111              CONDUIT      0.06     9  11:36      0.04    0.00    0.15
  CDT-113              CONDUIT      0.41    11  08:00      0.25    0.05    0.15
  CDT-115              CONDUIT      0.36     2  07:29      0.22    0.02    0.15
  CDT-117              CONDUIT      0.85    11  08:00      0.33    0.09    0.32
  CDT-119              CONDUIT      3.24     9  12:00      0.50    0.35    0.39
  CDT-121              CONDUIT      3.55     9  12:00      0.63    0.22    0.36
  CDT-123              CONDUIT      5.80     9  12:00      0.80    0.32    0.43
  CDT-125              CONDUIT      6.13    16  11:50      1.07    0.36    0.37
  CDT-127              CONDUIT      6.22    16  11:52      2.29    0.03    0.56
  CDT-129              CONDUIT      1.29     9  11:12      0.42    0.06    0.28
  CDT-13               CONDUIT      6.43    27  12:00      0.53    0.01    0.05
  CDT-131              CONDUIT      1.09     9  11:18      0.25    0.09    0.32
  CDT-133              CONDUIT      0.28    16  07:08      0.48    0.02    0.08
  CDT-135              CONDUIT      0.61    23  08:01      1.06    0.00    0.52
  CDT-137              CONDUIT    112.11    22  09:28      0.68    0.41    1.00
  CDT-141              CONDUIT    131.34    22  09:28      0.98    0.62    1.00
  CDT-143              CONDUIT    195.29    16  07:40      1.19    1.69    1.00
  CDT-147              CONDUIT    178.20    16  07:39      1.09    1.48    1.00
  CDT-149              CONDUIT    175.20    16  07:39      1.90    0.39    1.00
  CDT-15               CONDUIT      6.52    27  12:00      1.23    0.00    0.35
  CDT-151              CONDUIT    247.77    21  15:24      1.51    1.06    1.00
  CDT-153              CONDUIT    249.41     8  11:33      1.52    0.68    1.00
  CDT-155              CONDUIT    250.32     8  11:33      1.76    0.99    1.00
  CDT-157              CONDUIT     92.28     0  20:29      1.10    0.28    1.00
  CDT-159              CONDUIT    316.69    23  07:52      2.66    0.96    0.68
  CDT-161              CONDUIT    322.10    23  07:52      3.37    0.04    0.14
  CDT-163              CHANNEL  36430.84     0  00:02      0.67    0.92    1.00
  CDT-165              CHANNEL  85017.79     0  00:05      1.36    1.23    1.00
  CDT-167              CHANNEL  79110.78     0  00:04      0.83    1.65    1.00
  CDT-169              CHANNEL  60195.57     0  00:02      1.51    1.75    1.00
  CDT-17               CONDUIT      0.93     7  07:04      0.61    0.04    0.14
  CDT-171              CHANNEL  95827.64     0  00:02      1.16    1.07    1.00
  CDT-175              CHANNEL 669110.01     0  00:01      2.66    1.11    0.80
  CDT-19               CONDUIT      1.00     7  07:12      0.67    0.04    0.14
  CDT-21               CONDUIT      1.00     7  07:16      0.31    0.03    0.31
  CDT-23               CONDUIT     22.96    16  08:55      2.66    0.11    0.61
  CDT-25               CONDUIT      0.19     0  07:49      0.17    0.01    0.11
  CDT-27               CONDUIT      1.59     1  07:53      0.66    0.05    0.19
  CDT-29               CONDUIT      3.43    24  07:41      0.65    0.11    0.48
  CDT-31               CONDUIT     19.78     2  08:00      1.11    0.24    0.30
  CDT-33               CONDUIT      0.90     7  07:09      0.48    0.04    0.16
  CDT-35               CONDUIT      2.35     1  07:31      0.82    0.07    0.22
  CDT-37               CONDUIT      4.24     5  07:20      0.81    0.13    0.46
  CDT-39               CONDUIT     15.18     2  08:00      0.68    0.24    0.35
  CDT-41               CONDUIT      0.33     9  12:00      0.17    0.02    0.17
  CDT-43               CONDUIT      0.87     2  08:00      0.36    0.07    0.19
  CDT-45               CONDUIT      2.76     2  08:00      0.91    0.09    0.30
  CDT-47               CONDUIT      7.27     9  08:02      0.79    0.34    0.55
  CDT-49               CONDUIT     11.39     9  12:00      0.68    0.53    0.51
  CDT-51               CONDUIT      0.00     0  00:00      0.00    0.00    0.08
  CDT-53               CONDUIT      0.73     4  11:35      0.55    0.04    0.13
  CDT-55               CONDUIT      0.93     4  11:39      0.56    0.02    0.15
  CDT-57               CONDUIT      1.20     5  08:00      0.37    0.10    0.25
  CDT-59               CONDUIT      1.69     3  07:48      0.47    0.17    0.62
  CDT-61               CONDUIT      0.38     0  07:50      0.42    0.02    0.10
  CDT-63               CONDUIT      0.79     0  07:53      0.48    0.02    0.15
  CDT-65               CONDUIT      1.17    14  08:00      0.38    0.08    0.24
  CDT-67               CONDUIT      5.15     3  07:48      1.20    0.10    0.51
  CDT-69               CONDUIT      0.96    11  08:00      0.61    0.04    0.14
  CDT-71               CONDUIT      1.25    11  08:00      0.38    0.05    0.24
  CDT-73               CONDUIT      3.24     3  07:54      0.68    0.23    0.31
  CDT-75               CONDUIT      3.27    26  07:37      0.78    0.18    0.29
  CDT-77               CONDUIT      0.47     0  07:52      0.27    0.04    0.15
  CDT-79               CONDUIT      1.65     5  08:00      0.47    0.06    0.25
  CDT-81               CONDUIT      0.27    11  08:00      0.18    0.03    0.14
  CDT-83               CONDUIT      0.80    11  08:00      0.42    0.05    0.16
  CDT-85               CONDUIT      0.20    13  07:49      0.22    0.01    0.10
  CDT-87               CONDUIT      0.44    17  07:20      0.36    0.03    0.12
  CDT-89               CONDUIT      0.45    17  07:32      0.30    0.03    0.14
  CDT-91               CONDUIT      0.79    17  07:34      0.50    0.05    0.19
  CDT-93               CONDUIT      2.61     9  11:38      0.90    0.11    0.22
  CDT-95               CONDUIT      6.31    14  07:45      1.72    0.03    0.55
  CDT-97               CONDUIT      0.54    11  07:25      0.27    0.03    0.17
  CDT-99               CONDUIT      0.88    11  08:00      0.25    0.11    0.25
  R255                 CHANNEL  69461.40     0  00:01      3.91    0.03    0.52
  R26                  CHANNEL      0.69    27  12:11      0.00    0.00    0.02
  R74                  CHANNEL      5.08     0  00:00      0.00    0.00    0.13
  R83                  CHANNEL  16047.00     0  00:01      3.11    0.01    0.13
  RINFLOW              CHANNEL  33753.92     0  00:03      0.97    0.30    0.82
  PUMP-13              PUMP        97.40     0  20:25              0.98
  PUMP-15              PUMP       368.05    15  01:41              0.74
  PUMP-17              PUMP        99.12     1  07:28              1.00
  PUMP-19              PUMP        99.12     0  12:26              1.00
  PUMP1@1115-351       PUMP         0.00     0  00:00              0.00
  ORI-11               ORIFICE      1.98    27  12:00                      0.00
  WEIR1@260-261        WEIR         0.00     0  00:00                      0.00
  OLET-11              DUMMY        0.00     0  00:00
  
  
  ***************************
  Flow Classification Summary
  ***************************
  
  -------------------------------------------------------------------------------------
                      Adjusted    ---------- Fraction of Time in Flow Class ---------- 
                       /Actual         Up    Down  Sub   Sup   Up    Down  Norm  Inlet 
  Conduit               Length    Dry  Dry   Dry   Crit  Crit  Crit  Crit  Ltd   Ctrl  
  -------------------------------------------------------------------------------------
  1001OF                  1.00   0.00  0.00  0.00  1.00  0.00  0.00  0.00  0.00  0.00
  105OF                   1.00   0.00  0.00  0.00  1.00  0.00  0.00  0.00  1.00  0.00
  1114                    2.64   0.00  1.00  0.00  0.00  0.00  0.00  0.00  0.00  0.00
  117                     2.68   0.00  0.07  0.00  0.93  0.00  0.00  0.00  1.00  0.00
  117OF                   1.00   0.07  0.72  0.00  0.21  0.00  0.00  0.00  0.99  0.00
  1209                    1.00   0.00  0.00  0.00  0.01  0.99  0.00  0.00  0.00  0.00
  1211                    1.00   0.00  0.00  0.00  1.00  0.00  0.00  0.00  1.00  0.00
  1225                    1.00   0.00  0.00  0.00  1.00  0.00  0.00  0.00  1.00  0.00
  1226                    1.13   0.00  0.00  0.00  1.00  0.00  0.00  0.00  1.00  0.00
  1228                    2.95   0.85  0.15  0.00  0.00  0.00  0.00  0.00  0.00  0.00
  1230                    1.00   0.00  0.85  0.00  0.15  0.00  0.00  0.00  0.99  0.00
  1249                    1.00   0.00  0.00  0.00  0.00  1.00  0.00  0.00  0.00  0.00
  1269                    1.00   0.00  0.25  0.00  0.75  0.00  0.00  0.00  0.91  0.00
  1270                    1.00   0.00  0.00  0.00  1.00  0.00  0.00  0.00  0.00  0.00
  1275                    1.00   0.00  0.00  0.00  1.00  0.00  0.00  0.00  1.00  0.00
  1276                    1.00   0.00  0.00  0.00  1.00  0.00  0.00  0.00  0.88  0.00
  1277                    1.00   0.00  0.00  0.00  0.00  1.00  0.00  0.00  0.00  0.00
  1281                    1.00   0.00  0.00  0.00  1.00  0.00  0.00  0.00  0.19  0.00
  1284                    1.00   0.00  0.00  0.00  0.65  0.35  0.00  0.00  0.65  0.00
  1285                    1.00   0.00  0.00  0.00  1.00  0.00  0.00  0.00  0.34  0.00
  1288                    1.00   0.00  0.00  0.00  1.00  0.00  0.00  0.00  0.45  0.00
  1289                    1.00   0.00  0.00  0.00  1.00  0.00  0.00  0.00  1.00  0.00
  1290                    1.00   0.00  0.00  0.00  1.00  0.00  0.00  0.00  1.00  0.00
  1291                    2.79   0.00  0.00  0.00  0.44  0.56  0.00  0.00  0.00  0.00
  1293                    1.00   0.00  0.32  0.00  0.68  0.00  0.00  0.00  0.54  0.00
  1294                    1.00   0.00  0.57  0.00  0.43  0.00  0.00  0.00  0.99  0.00
  1297                    1.00   0.00  0.00  0.00  1.00  0.00  0.00  0.00  1.00  0.00
  1298                    1.00   0.00  0.00  0.00  1.00  0.00  0.00  0.00  0.99  0.00
  1299                    1.00   0.00  0.00  0.00  1.00  0.00  0.00  0.00  1.00  0.00
  1300                    1.00   0.00  0.00  0.00  0.00  1.00  0.00  0.00  0.00  0.00
  1306                    1.00   0.00  0.79  0.00  0.21  0.00  0.00  0.00  0.99  0.00
  1307                    1.00   0.04  0.04  0.00  0.93  0.00  0.00  0.00  0.14  0.00
  1308                    1.00   0.00  0.04  0.00  0.96  0.00  0.00  0.00  0.10  0.00
  1312                    1.00   0.01  0.00  0.00  0.99  0.00  0.00  0.00  0.99  0.00
  1314                    1.06   0.00  0.78  0.00  0.22  0.00  0.00  0.00  0.99  0.00
  1315                    1.00   0.00  0.00  0.00  1.00  0.00  0.00  0.00  1.00  0.00
  1316                    1.00   0.00  0.00  0.00  0.00  1.00  0.00  0.00  0.00  0.00
  1317                    1.00   0.00  0.00  0.00  1.00  0.00  0.00  0.00  0.07  0.00
  1328                    1.00   0.00  0.01  0.00  0.99  0.00  0.00  0.00  0.99  0.00
  136OF                   1.00   0.00  0.04  0.00  0.96  0.00  0.00  0.00  0.08  0.00
  13OF                    1.19   0.00  0.00  0.00  1.00  0.00  0.00  0.00  0.88  0.00
  140OF                   1.00   0.04  0.04  0.00  0.93  0.00  0.00  0.00  0.06  0.00
  144                     1.00   0.00  0.78  0.00  0.22  0.00  0.00  0.00  1.00  0.00
  144OF                   2.09   0.00  0.78  0.00  0.22  0.00  0.00  0.00  1.00  0.00
  150OF                   1.00   0.00  0.00  0.00  1.00  0.00  0.00  0.00  0.19  0.00
  158                     1.68   0.00  0.01  0.00  0.99  0.00  0.00  0.00  1.00  0.00
  158OF                   1.43   0.00  0.01  0.00  0.99  0.00  0.00  0.00  1.00  0.00
  15OF                    3.56   0.00  0.00  0.00  1.00  0.00  0.00  0.00  1.00  0.00
  163OF                   2.04   0.00  0.00  0.00  1.00  0.00  0.00  0.00  0.00  0.00
  166OF                   1.00   0.00  0.00  0.00  1.00  0.00  0.00  0.00  0.06  0.00
  1791OF                  1.59   0.00  0.63  0.00  0.37  0.00  0.00  0.00  0.33  0.00
  179OF                   1.00   0.07  0.61  0.00  0.32  0.00  0.00  0.00  1.00  0.00
  17OF                    1.00   0.00  0.00  0.00  1.00  0.00  0.00  0.00  0.40  0.00
  183OF                   1.00   0.00  0.66  0.00  0.34  0.00  0.00  0.00  0.99  0.00
  187OF                   1.00   0.00  0.00  0.00  1.00  0.00  0.00  0.00  0.07  0.00
  18OF                    1.00   0.00  0.00  0.00  1.00  0.00  0.00  0.00  0.00  0.00
  191OF                   1.00   0.00  0.00  0.00  1.00  0.00  0.00  0.00  1.00  0.00
  19OF                    1.00   0.00  1.00  0.00  0.00  0.00  0.00  0.00  1.00  0.00
  200                     1.00   0.00  0.00  0.00  1.00  0.00  0.00  0.00  1.00  0.00
  200OF                   1.00   0.00  0.00  0.00  1.00  0.00  0.00  0.00  1.00  0.00
  201OF                   1.00   0.00  0.25  0.00  0.75  0.00  0.00  0.00  1.00  0.00
  205OF                   1.00   0.00  0.68  0.00  0.32  0.00  0.00  0.00  1.00  0.00
  209OFA                  1.00   0.00  0.00  0.00  1.00  0.00  0.00  0.00  0.34  0.00
  229OF                   1.00   0.00  0.00  0.00  1.00  0.00  0.00  0.00  0.77  0.00
  229OFB                  1.00   0.00  0.00  0.00  1.00  0.00  0.00  0.00  0.47  0.00
  232OF                   1.00   0.00  0.00  0.00  1.00  0.00  0.00  0.00  0.58  0.00
  244OF                   1.16   0.00  0.78  0.00  0.22  0.00  0.00  0.00  0.99  0.00
  257OF                   1.73   0.00  0.78  0.00  0.22  0.00  0.00  0.00  0.99  0.00
  25OF                    1.00   0.00  1.00  0.00  0.00  0.00  0.00  0.00  1.00  0.00
  2601OF                  1.02   0.07  0.24  0.00  0.68  0.00  0.00  0.00  0.63  0.00
  260OF                   1.00   0.00  0.07  0.00  0.93  0.00  0.00  0.00  0.89  0.00
  267OF                   1.00   0.66  0.12  0.00  0.22  0.00  0.00  0.00  0.99  0.00
  269OF                   1.00   0.00  0.00  0.00  1.00  0.00  0.00  0.00  0.81  0.00
  276OF                   1.00   0.00  0.01  0.00  0.99  0.00  0.00  0.00  0.99  0.00
  281OF                   1.00   0.00  0.32  0.00  0.68  0.00  0.00  0.00  0.55  0.00
  2851OF                  1.00   0.01  0.00  0.00  0.99  0.00  0.00  0.00  0.17  0.00
  285OF                   2.23   0.01  0.00  0.00  0.99  0.00  0.00  0.00  0.21  0.00
  297OF                   1.00   0.00  0.00  0.00  1.00  0.00  0.00  0.00  1.00  0.00
  306OF                   1.00   0.00  0.57  0.00  0.43  0.00  0.00  0.00  0.99  0.00
  3084                    1.53   0.00  0.00  0.00  1.00  0.00  0.00  0.00  1.00  0.00
  3091                   43.83   0.00  0.00  0.00  1.00  0.00  0.00  0.00  1.00  0.00
  31OF                    1.87   0.00  0.00  0.00  1.00  0.00  0.00  0.00  1.00  0.00
  3231OF                  1.00   0.00  0.01  0.00  0.99  0.00  0.00  0.00  1.00  0.00
  323OF                   1.00   0.00  0.57  0.00  0.43  0.00  0.00  0.00  0.71  0.00
  325OF                   2.68   0.00  0.00  0.00  1.00  0.00  0.00  0.00  1.00  0.00
  3289                    1.00   0.00  0.00  0.00  1.00  0.00  0.00  0.00  0.01  0.00
  3293                    3.60   0.00  0.00  0.00  1.00  0.00  0.00  0.00  1.00  0.00
  32OF                    1.09   0.00  0.00  0.00  1.00  0.00  0.00  0.00  1.00  0.00
  3339                    1.00   0.00  0.00  0.00  1.00  0.00  0.00  0.00  0.00  0.00
  3349                    1.81   0.00  0.00  0.00  1.00  0.00  0.00  0.00  1.00  0.00
  3355                    1.00   0.00  0.00  0.00  1.00  0.00  0.00  0.00  0.00  0.00
  3423                    1.00   0.00  0.00  0.00  1.00  0.00  0.00  0.00  0.00  0.00
  3424                    1.00   0.00  0.00  0.00  1.00  0.00  0.00  0.00  1.00  0.00
  348OF                  21.16   0.00  0.00  0.00  1.00  0.00  0.00  0.00  1.00  0.00
  3493                    1.00   0.00  0.00  0.00  0.00  1.00  0.00  0.00  0.00  0.00
  3510                    1.00   0.00  0.00  0.00  1.00  0.00  0.00  0.00  0.45  0.00
  3511                    1.00   0.00  0.00  0.00  1.00  0.00  0.00  0.00  0.47  0.00
  351OF                   7.61   0.00  1.00  0.00  0.00  0.00  0.00  0.00  0.00  0.00
  3521                    1.00   0.00  0.57  0.00  0.43  0.00  0.00  0.00  0.73  0.00
  3527                    1.00   0.00  0.00  0.00  1.00  0.00  0.00  0.00  1.00  0.00
  3629                    1.00   0.00  0.00  0.00  1.00  0.00  0.00  0.00  0.99  0.00
  3656                    1.00   0.00  0.07  0.00  0.93  0.00  0.00  0.00  0.89  0.00
  3682                    1.00   0.00  0.00  0.00  1.00  0.00  0.00  0.00  0.07  0.00
  3690                    1.00   0.00  0.00  0.00  1.00  0.00  0.00  0.00  0.97  0.00
  371OF                   1.53   0.00  0.00  0.00  1.00  0.00  0.00  0.00  1.00  0.00
  3843                    1.00   0.00  0.00  0.00  1.00  0.00  0.00  0.00  0.00  0.00
  384OF                   1.17   0.00  1.00  0.00  0.00  0.00  0.00  0.00  0.00  0.00
  3860                    6.38   0.00  0.00  0.00  1.00  0.00  0.00  0.00  1.00  0.00
  3873                    1.00   0.00  0.00  0.00  1.00  0.00  0.00  0.00  1.00  0.00
  387OF                   1.82   0.00  0.00  0.00  1.00  0.00  0.00  0.00  1.00  0.00
[...]
  CDT-73                  1.00   0.00  0.00  0.00  0.00  1.00  0.00  0.00  0.00  0.00
  CDT-75                  1.00   0.00  0.00  0.00  0.00  1.00  0.00  0.00  0.78  0.00
  CDT-77                  1.00   0.00  0.00  0.00  1.00  0.00  0.00  0.00  1.00  0.00
  CDT-79                  1.00   0.00  0.00  0.00  1.00  0.00  0.00  0.00  1.00  0.00
  CDT-81                  1.00   0.00  0.00  0.00  1.00  0.00  0.00  0.00  1.00  0.00
  CDT-83                  1.00   0.00  0.00  0.00  0.89  0.11  0.00  0.00  1.00  0.00
  CDT-85                  1.00   0.00  0.00  0.00  1.00  0.00  0.00  0.00  1.00  0.00
  CDT-87                  1.00   0.00  0.00  0.00  0.97  0.03  0.00  0.00  0.03  0.00
  CDT-89                  1.00   0.00  0.00  0.00  1.00  0.00  0.00  0.00  1.00  0.00
  CDT-91                  1.00   0.00  0.00  0.00  0.07  0.93  0.00  0.00  0.06  0.00
  CDT-93                  1.00   0.00  0.00  0.00  0.53  0.47  0.00  0.00  0.94  0.00
  CDT-95                  1.00   0.00  0.00  0.00  0.94  0.06  0.00  0.00  0.99  0.00
  CDT-97                  1.00   0.00  0.00  0.00  1.00  0.00  0.00  0.00  1.00  0.00
  CDT-99                  1.00   0.00  0.00  0.00  1.00  0.00  0.00  0.00  1.00  0.00
  R255                    2.85   0.00  0.78  0.00  0.22  0.00  0.00  0.00  1.00  0.00
  R26                     1.00   0.00  0.00  0.00  1.00  0.00  0.00  0.00  0.03  0.00
  R74                     1.80   0.00  0.00  0.00  1.00  0.00  0.00  0.00  1.00  0.00
  R83                     1.00   0.00  0.78  0.00  0.22  0.00  0.00  0.00  1.00  0.00
  RINFLOW                 1.00   0.00  0.00  0.00  1.00  0.00  0.00  0.00  1.00  0.00
  
  
  *************************
  Conduit Surcharge Summary
  *************************
  
  ----------------------------------------------------------------------------
                                                           Hours        Hours 
                         --------- Hours Full --------   Above Full   Capacity
  Conduit                Both Ends  Upstream  Dnstream   Normal Flow   Limited
  ----------------------------------------------------------------------------
  105OF                       0.01      0.01    313.49      0.01         0.01
  1284                        0.01      0.01    308.89      0.01         0.01
  1285                      308.89    308.89    617.43      0.01         0.01
  1288                        0.01      0.01    424.06      0.01         0.01
  1290                        0.01      0.01    610.96      0.01         0.01
  1297                        0.01      0.01    255.13      0.01         0.01
  1298                        0.01      0.01    302.52      0.01         0.01
  1314                        0.01      0.01    400.38      0.01         0.01
  136OF                       0.01      0.01    317.41      0.01         0.01
  144                         0.01      0.01    719.94      0.01         0.01
  144OF                       0.01      0.01    719.94      0.01         0.01
  158OF                       0.01      0.01    317.41      0.01         0.01
  163OF                       0.01      0.01    719.94      0.01         0.01
  191OF                       0.01      0.01      0.09      0.01         0.01
  19OF                        0.01      0.01      0.09      0.01         0.01
  200OF                       0.01      0.01    257.17      0.01         0.01
  205OF                       0.01      0.01    616.99      0.01         0.01
  209OFA                      0.01      0.01    463.54      0.01         0.01
  244OF                       0.01      0.01    616.99      0.01         0.01
  257OF                       0.01      0.01     86.14      0.01         0.01
  269OF                       0.01      0.01    463.54      0.01         0.01
  3084                        0.01      0.01    447.62      0.01         0.01
  3091                        0.01      0.01    447.62      0.01         0.01
  348OF                       0.01      0.01    510.28      0.01         0.01
  3521                        0.01      0.01    302.52      0.01         0.01
  3527                        0.01      0.01    336.13      0.01         0.01
  3682                        0.01      0.01    686.02      0.01         0.01
  3873                        0.01      0.01    672.92      0.01         0.01
  4043                        0.01      0.01    640.98      0.01         0.01
  4155                        0.01      0.01    640.98      0.01         0.01
  4232                        0.01      0.01    719.94      0.01         0.01
  7OF                         0.01      0.01      0.29      0.01         0.01
  989OF                       0.01      0.01    510.28      0.01         0.01
  CDT-127                     0.01      0.01    356.24      0.01         0.01
  CDT-135                     0.01      0.01    345.47      0.01         0.01
  CDT-137                   707.55    707.55    714.37      0.01         0.01
  CDT-141                   699.21    699.21    707.55      0.01         0.01
  CDT-143                   699.11    699.11    699.21      0.57         0.01
  CDT-147                   698.83    699.26    699.11      0.55        20.42
  CDT-149                   699.26    699.26    707.33      0.01         0.01
  CDT-151                   707.28    707.28    707.33      7.80         0.01
  CDT-153                   707.09    707.09    707.28      0.01         0.01
  CDT-155                     0.16      0.16    707.09      0.01         0.01
  CDT-157                     0.16      0.16    699.52      0.01         0.01
  CDT-159                     0.01      0.16      0.01      0.01         0.01
  CDT-163                     0.01      0.01      0.01      0.01         0.01
  CDT-165                     0.01      0.04      0.01      0.05         0.01
  CDT-167                     0.13      0.14      0.14      0.13         0.13
  CDT-169                     0.32      0.39      0.32      0.39         0.32
  CDT-171                     0.01      0.01      0.02      0.01         0.01
  CDT-175                     0.01      0.01      0.01      0.01         0.01
  CDT-23                      0.01      0.01    670.98      0.01         0.01
  CDT-59                      0.01      0.01      0.22      0.01         0.01
  CDT-95                      0.01      0.01    366.10      0.01         0.01
  R255                        0.01      0.01      0.01      0.01         0.01
  RINFLOW                     0.01      0.01      0.28      0.01         0.01
  
  
  ***************
  Pumping Summary
  ***************
  
  ---------------------------------------------------------------------------------------------------------
                                                  Min       Avg       Max     Total     Power    % Time Off
                        Percent   Number of      Flow      Flow      Flow    Volume     Usage    Pump Curve
  Pump                 Utilized   Start-Ups       LPS       LPS       LPS  10^6 ltr     Kw-hr    Low   High
  ---------------------------------------------------------------------------------------------------------
  PUMP-13                  8.66          33      0.00     80.79     97.40    18.142    455.25    0.0    0.0
  PUMP-15                  1.35          15      0.00    248.27    368.05     8.747    348.62    0.0    0.0
  PUMP-17                  0.91          31      0.00     98.81     99.12     2.332     15.11    0.0   89.4
  PUMP-19                  3.06          54      0.00     99.12     99.12     7.862     91.55    0.0   99.9
  PUMP1@1115-351           0.00           0      0.00      0.00      0.00     0.000      0.00    0.0    0.0
  
  
  ***************************
  Link Pollutant Load Summary
  ***************************
  
  ------------------------------------------------
                                  TN           TSS
  Link                            kg            kg
  ------------------------------------------------
  1001OF                       1.910         9.551
  105OF                       10.400        51.998
  1114                         0.000         0.000
  117                         65.237       326.187
  117OF                        1.378         6.890
  1209                         5.653        28.264
  1211                         0.091         0.453
  1225                         2.067        10.335
  1226                         0.000         0.000
  1228                         0.000         0.000
  1230                         0.000         0.001
  1249                        10.202        51.009
  1269                         0.090         0.449
  1270                         0.364         1.820
  1275                         0.024         0.120
  1276                         0.046         0.228
  1277                         8.502        42.512
  1281                         0.069         0.343
  1284                         2.697        13.486
  1285                         2.189        10.943
  1288                        15.772        78.860
  1289                        16.459        82.294
  1290                         0.018         0.090
  1291                         0.518         2.590
  1293                         0.097         0.487
  1294                         0.018         0.088
  1297                         0.003         0.013
  1298                         0.004         0.021
  1299                         2.505        12.524
  1300                         9.305        46.525
  1306                         0.025         0.126
  1307                         1.745         8.727
  1308                         8.562        42.811
  1312                         0.001         0.003
  1314                         0.012         0.061
  1315                         0.251         1.254
  1316                         1.867         9.333
  1317                         0.663         3.317
  1328                         0.037         0.184
  136OF                       47.962       239.812
  13OF                         2.341        11.703
  140OF                       59.860       299.299
  144                          0.003         0.017
  144OF                        1.255         6.273
  150OF                        7.758        38.791
  158                          0.715         3.576
  158OF                       36.854       184.269
  15OF                         4.963        24.814
  163OF                        3.000        14.998
  166OF                       14.773        73.867
  1791OF                       5.227        26.133
  179OF                        3.092        15.459
  17OF                        14.979        74.897
  183OF                        2.623        13.114
  187OF                       30.389       151.945
  18OF                         1.010         5.050
  191OF                        8.106        40.528
  19OF                         0.000         0.000
  200                          0.115         0.576
  200OF                       27.043       135.216
  201OF                        5.098        25.489
  205OF                        3.424        17.120
  209OFA                      19.450        97.250
  229OF                       11.156        55.781
  229OFB                       0.022         0.110
  232OF                       16.084        80.420
  244OF                        1.864         9.321
  257OF                        1.907         9.534
  25OF                         0.000         0.000
  2601OF                       4.798        23.989
  260OF                       11.154        55.769
  267OF                        0.776         3.881
  269OF                       11.644        58.218
  276OF                        7.389        36.945
  281OF                        4.677        23.386
  2851OF                       0.148         0.738
  285OF                        0.264         1.321
  297OF                        0.882         4.412
  306OF                        3.957        19.786
  3084                         0.235         1.173
  3091                         0.576         2.881
  31OF                         0.475         2.374
  3231OF                       0.240         1.200
  323OF                        2.042        10.212
  325OF                       18.881        94.406
  3289                        19.010        95.049
  3293                         0.433         2.165
  32OF                         0.211         1.057
  3339                        13.504        67.521
  3349                         0.335         1.674
  3355                         0.007         0.035
  3423                         4.060        20.301
  3424                         5.534        27.671
  348OF                       14.626        73.128
  3493                         3.864        19.320
  3510                         0.023         0.117
  3511                         0.055         0.276
  351OF                        0.000         0.000
  3521                         0.051         0.254
  3527                         0.019         0.093
  3629                         0.004         0.020
  3656                         0.239         1.196
  3682                         0.221         1.104
  3690                        25.084       125.419
  371OF                        0.450         2.251
  3843                         0.021         0.105
  384OF                        0.000         0.000
  3860                         0.066         0.328
  3873                         0.062         0.309
  387OF                        0.211         1.055
  4030                         3.846        19.229
  4043                         0.013         0.065
  407OF                        3.512        17.559
  4103                         0.304         1.521
  4117                         0.000         0.000
  4130                         0.000         0.000
  4155                         0.017         0.084
  4195                         0.082         0.409
  4202                         0.018         0.088
  4203                         0.104         0.518
  421OF                        0.000         0.000
  4220                         0.044         0.220
  4232                         0.475         2.375
  4OF                          0.908         4.541
  5002                        42.774       213.872
  5003                         0.005         0.026
  77OF                         2.029        10.145
  7OF                          6.307        31.533
  879OF                        0.507         2.535
  882OF                        7.158        35.788
  893OF                        0.006         0.028
  8941OF                       0.003         0.015
  894OF                        0.001         0.003
  9561OF                      10.414        52.072
  9562OF                       3.981        19.904
  956OF                       16.048        80.242
  95OF                         0.000         0.000
  974OF                       20.254       101.270
  982OF                        5.969        29.847
  989OF                        9.876        49.381
  CDT-101                      8.170        40.850
  CDT-103                      9.565        47.825
  CDT-105                      9.901        49.505
  CDT-107                     10.678        53.392
  CDT-109                     11.971        59.856
  CDT-11                      44.655       223.277
  CDT-111                      0.029         0.144
  CDT-113                      2.581        12.907
  CDT-115                      2.248        11.241
  CDT-117                      5.330        26.649
  CDT-119                      6.940        34.701
  CDT-121                      9.660        48.298
  CDT-123                     11.033        55.163
  CDT-125                     11.524        57.622
  CDT-127                     11.736        58.681
  CDT-129                      0.787         3.933
  CDT-13                      45.908       229.542
  CDT-131                      0.664         3.320
  CDT-133                      1.750         8.748
  CDT-135                      1.982         9.912
  CDT-137                     42.012       210.058
  CDT-141                     45.421       227.105
  CDT-143                     55.909       279.544
  CDT-147                     56.149       280.743
  CDT-149                     59.914       299.572
  CDT-15                      46.038       230.188
  CDT-151                    102.307       511.536
  CDT-153                    103.314       516.569
  CDT-155                    103.427       517.133
  CDT-157                     90.937       454.683
  CDT-159                    192.323       961.614
  CDT-161                    228.508      1142.542
  CDT-163                      0.000         0.000
  CDT-165                      6.293        31.467
  CDT-167                     11.704        58.522
  CDT-169                     11.681        58.406
  CDT-17                       5.865        29.324
  CDT-171                     14.440        72.202
  CDT-175                     14.436        72.178
  CDT-19                       6.279        31.395
  CDT-21                       6.310        31.548
  CDT-23                      91.848       459.240
  CDT-25                       1.216         6.080
  CDT-27                      10.021        50.106
  CDT-29                      21.557       107.787
  CDT-31                      78.833       394.165
  CDT-33                       5.669        28.343
  CDT-35                      14.786        73.930
  CDT-37                      26.706       133.528
  CDT-39                      49.925       249.623
  CDT-41                       0.197         0.985
  CDT-43                       3.938        19.689
  CDT-45                      15.840        79.201
  CDT-47                      18.999        94.996
  CDT-49                      21.525       107.624
  CDT-51                       0.000         0.000
  CDT-53                       1.238         6.191
  CDT-55                       3.062        15.312
  CDT-57                       4.890        24.448
  CDT-59                       6.593        32.965
  CDT-61                       2.413        12.064
  CDT-63                       4.954        24.772
  CDT-65                       7.387        36.933
  CDT-67                      29.345       146.727
  CDT-69                       6.051        30.254
  CDT-71                       7.857        39.285
  CDT-73                      20.337       101.686
  CDT-75                      20.487       102.435
  CDT-77                       2.968        14.842
  CDT-79                      10.369        51.844
  CDT-81                       1.712         8.562
  CDT-83                       5.033        25.163
  CDT-85                       1.259         6.297
  CDT-87                       2.738        13.691
  CDT-89                       2.766        13.830
  CDT-91                       4.875        24.375
  CDT-93                       6.138        30.689
  CDT-95                      39.593       197.964
  CDT-97                       3.401        17.003
  CDT-99                       5.506        27.532
  R255                         2.772        13.859
  R26                          2.061        10.304
  R74                          4.204        21.019
  R83                          0.768         3.839
  RINFLOW                      5.467        27.333
  PUMP-13                     90.735       453.676
  PUMP-15                     46.174       230.870
  PUMP-17                     11.685        58.423
  PUMP-19                     39.370       196.851
  PUMP1@1115-351               0.000         0.000
  ORI-11                       1.909         9.545
  WEIR1@260-261                0.000         0.000
  OLET-11                      0.000         0.000
  

  Analysis begun on:  Fri Nov 29 13:38:26 2019
  Analysis ended on:  Fri Nov 29 13:38:46 2019
  Total elapsed time: 00:00:20