
  EPA STORM WATER MANAGEMENT MODEL - VERSION 5.1 (Build 5.1.013)
  --------------------------------------------------------------

  Scenario Run :  1DONLY 
  
  WARNING 02: maximum depth increased for Node 140
  WARNING 02: maximum depth increased for Node 173
  WARNING 02: maximum depth increased for Node 25
  WARNING 02: maximum depth increased for Node 255
  WARNING 02: maximum depth increased for Node 26
  WARNING 02: maximum depth increased for Node 261
  WARNING 02: maximum depth increased for Node 276
  WARNING 02: maximum depth increased for Node 31
  WARNING 02: maximum depth increased for Node 74
  WARNING 02: maximum depth increased for Node 77
  WARNING 02: maximum depth increased for Node JCT-10
  WARNING 02: maximum depth increased for Node JCT-160
  WARNING 02: maximum depth increased for Node JCT-162
  WARNING 02: maximum depth increased for Node JCT-164
  WARNING 02: maximum depth increased for Node JCT-166
  WARNING 02: maximum depth increased for Node JCT-168
  WARNING 02: maximum depth increased for Node JCT-170
  
  **********************           Volume        Volume
  Rainfall Dependent I/I        acre-feet      10^6 gal
  **********************        ---------     ---------
  Sewershed Rainfall ......       173.471        56.528
  RDII Produced ...........         5.019         1.636
  RDII Ratio ..............         0.029
  
  
  *********************************************************
  NOTE: The summary statistics displayed in this report are
  based on results found at every computational time step,  
  not just on results from each reporting time step.
  *********************************************************
  
  ****************
  Analysis Options
  ****************
  Flow Units ............... CFS
  Process Models:
    Rainfall/Runoff ........ YES
    RDII ................... YES
    Snowmelt ............... NO
    Groundwater ............ NO
    Flow Routing ........... YES
    Ponding Allowed ........ NO
    Water Quality .......... NO
  Infiltration Method ...... GREEN_AMPT
  Flow Routing Method ...... DYNWAVE
  Surcharge Method ......... EXTRAN
  Starting Date ............ 01/01/1997 00:00:00
  Ending Date .............. 01/01/1997 02:00:00
  Antecedent Dry Days ...... 5.0
  Report Time Step ......... 00:05:00
  Wet Time Step ............ 00:00:30
  Dry Time Step ............ 00:01:00
  Routing Time Step ........ 30.00 sec
  Variable Time Step ....... YES
  Maximum Trials ........... 6
  Number of Threads ........ 1
  Head Tolerance ........... 0.000100 ft
  
  
  **************************        Volume         Depth
  Runoff Quantity Continuity     acre-feet        inches
  **************************     ---------       -------
  Initial Snow Cover .......         0.000         0.000
  Total Precipitation ......         0.000         0.000
  Evaporation Loss .........         0.000         0.000
  Infiltration Loss ........         0.000         0.000
  Surface Runoff ...........         0.000         0.000
  Snow Removed .............         0.000         0.000
  Final Snow Cover .........         0.000         0.000
  Final Storage ............         0.000         0.000
  Continuity Error (%) .....         0.000
  
  
  **************************        Volume        Volume
  Flow Routing Continuity        acre-feet      10^6 gal
  **************************     ---------     ---------
  Dry Weather Inflow .......         0.000         0.000
  Wet Weather Inflow .......         0.000         0.000
  Groundwater Inflow .......         0.000         0.000
  RDII Inflow ..............         0.000         0.000
  External Inflow ..........         0.000         0.000
  External Outflow .........         0.000         0.000
  Flooding Loss ............         0.000         0.000
  Evaporation Loss .........         0.000         0.000
  Exfiltration Loss ........         0.000         0.000
  Initial Stored Volume ....         0.003         0.001
  Final Stored Volume ......         0.003         0.001
  Continuity Error (%) .....         0.000
  
  
  ***************************
  Time-Step Critical Elements
  ***************************
  None
  
  
  ********************************
  Highest Flow Instability Indexes
  ********************************
  All links are stable.
  
  
  ***************************
  Subcatchment Runoff Summary
  ***************************
  
  ------------------------------------------------------------------------------------------------------------------------------
                            Total      Total      Total      Total     Imperv       Perv      Total       Total     Peak  Runoff
                           Precip      Runon       Evap      Infil     Runoff     Runoff     Runoff      Runoff   Runoff   Coeff
  Subcatchment                 in         in         in         in         in         in         in    10^6 gal      CFS
  ------------------------------------------------------------------------------------------------------------------------------
  C10                        0.00       0.00       0.00       0.00       0.00       0.00       0.00        0.00     0.00   0.000
  C13                        0.00       0.00       0.00       0.00       0.00       0.00       0.00        0.00     0.00   0.000
  C15                        0.00       0.00       0.00       0.00       0.00       0.00       0.00        0.00     0.00   0.000
  C20                        0.00       0.00       0.00       0.00       0.00       0.00       0.00        0.00     0.00   0.000
  C25                        0.00       0.00       0.00       0.00       0.00       0.00       0.00        0.00     0.00   0.000
  C30                        0.00       0.00       0.00       0.00       0.00       0.00       0.00        0.00     0.00   0.000
  C33                        0.00       0.00       0.00       0.00       0.00       0.00       0.00        0.00     0.00   0.000
  C35                        0.00       0.00       0.00       0.00       0.00       0.00       0.00        0.00     0.00   0.000
  C45                        0.00       0.00       0.00       0.00       0.00       0.00       0.00        0.00     0.00   0.000
  C50                        0.00       0.00       0.00       0.00       0.00       0.00       0.00        0.00     0.00   0.000
  C55                        0.00       0.00       0.00       0.00       0.00       0.00       0.00        0.00     0.00   0.000
  C57                        0.00       0.00       0.00       0.00       0.00       0.00       0.00        0.00     0.00   0.000
  C60                        0.00       0.00       0.00       0.00       0.00       0.00       0.00        0.00     0.00   0.000
  C65                        0.00       0.00       0.00       0.00       0.00       0.00       0.00        0.00     0.00   0.000
  D10                        0.00       0.00       0.00       0.00       0.00       0.00       0.00        0.00     0.00   0.000
  D15                        0.00       0.00       0.00       0.00       0.00       0.00       0.00        0.00     0.00   0.000
  D20                        0.00       0.00       0.00       0.00       0.00       0.00       0.00        0.00     0.00   0.000
  D21                        0.00       0.00       0.00       0.00       0.00       0.00       0.00        0.00     0.00   0.000
  D22                        0.00       0.00       0.00       0.00       0.00       0.00       0.00        0.00     0.00   0.000
  D25                        0.00       0.00       0.00       0.00       0.00       0.00       0.00        0.00     0.00   0.000
  D30                        0.00       0.00       0.00       0.00       0.00       0.00       0.00        0.00     0.00   0.000
  D32                        0.00       0.00       0.00       0.00       0.00       0.00       0.00        0.00     0.00   0.000
  D35                        0.00       0.00       0.00       0.00       0.00       0.00       0.00        0.00     0.00   0.000
  D40                        0.00       0.00       0.00       0.00       0.00       0.00       0.00        0.00     0.00   0.000
  D45                        0.00       0.00       0.00       0.00       0.00       0.00       0.00        0.00     0.00   0.000
  D50                        0.00       0.00       0.00       0.00       0.00       0.00       0.00        0.00     0.00   0.000
  D55                        0.00       0.00       0.00       0.00       0.00       0.00       0.00        0.00     0.00   0.000
  D60                        0.00       0.00       0.00       0.00       0.00       0.00       0.00        0.00     0.00   0.000
  D65                        0.00       0.00       0.00       0.00       0.00       0.00       0.00        0.00     0.00   0.000
  D70                        0.00       0.00       0.00       0.00       0.00       0.00       0.00        0.00     0.00   0.000
  
  
  ******************
  Node Depth Summary
  ******************
  
  ---------------------------------------------------------------------------------
                                 Average  Maximum  Maximum  Time of Max    Reported
                                   Depth    Depth      HGL   Occurrence   Max Depth
  Node                 Type         Feet     Feet     Feet  days hr:min        Feet
  ---------------------------------------------------------------------------------
  1001                 JUNCTION  -nan(ind)     0.00   708.95     0  00:00        0.00
  105                  JUNCTION  -nan(ind)     0.00   678.79     0  00:00        0.00
  13                   JUNCTION  -nan(ind)     0.00   689.38     0  00:00        0.00
  136                  JUNCTION  -nan(ind)     0.00   665.13     0  00:00        0.00
  137                  JUNCTION  -nan(ind)     0.00   690.49     0  00:00        0.00
  140                  JUNCTION  -nan(ind)     0.00   666.28     0  00:00        0.00
  144                  JUNCTION  -nan(ind)     0.00   666.36     0  00:00        0.00
  147                  JUNCTION  -nan(ind)     0.00   686.54     0  00:00        0.00
  15                   JUNCTION  -nan(ind)     0.00   687.87     0  00:00        0.00
  150                  JUNCTION  -nan(ind)     0.00   681.79     0  00:00        0.00
  158                  JUNCTION  -nan(ind)     0.00   670.07     0  00:00        0.00
  166                  JUNCTION  -nan(ind)     0.00   670.07     0  00:00        0.00
  173                  JUNCTION  -nan(ind)     0.00   670.02     0  00:00        0.00
  179                  JUNCTION  -nan(ind)     0.00   668.80     0  00:00        0.00
  18                   JUNCTION  -nan(ind)     0.00   694.54     0  00:00        0.00
  183                  JUNCTION  -nan(ind)     0.00   670.95     0  00:00        0.00
  19                   JUNCTION  -nan(ind)     0.00   671.87     0  00:00        0.00
  200                  JUNCTION  -nan(ind)     0.00   689.11     0  00:00        0.00
  201                  JUNCTION  -nan(ind)     0.00   693.88     0  00:00        0.00
  205                  JUNCTION  -nan(ind)     0.00   664.77     0  00:00        0.00
  209                  JUNCTION  -nan(ind)     0.00   671.05     0  00:00        0.00
  232                  JUNCTION  -nan(ind)     0.00   671.41     0  00:00        0.00
  244                  JUNCTION  -nan(ind)     0.00   678.53     0  00:00        0.00
  25                   JUNCTION  -nan(ind)     0.00   673.85     0  00:00        0.00
  255                  JUNCTION  -nan(ind)     0.00   668.95     0  00:00        0.00
  257                  JUNCTION  -nan(ind)     0.00   670.53     0  00:00        0.00
  26                   JUNCTION  -nan(ind)     0.00   665.49     0  00:00        0.00
  260                  JUNCTION  -nan(ind)     0.00   672.44     0  00:00        0.00
  261                  JUNCTION  -nan(ind)     0.00   672.62     0  00:00        0.00
  267                  JUNCTION  -nan(ind)     0.00   696.75     0  00:00        0.00
  269                  JUNCTION  -nan(ind)     0.00   667.15     0  00:00        0.00
  276                  JUNCTION  -nan(ind)     0.00   680.46     0  00:00        0.00
  281                  JUNCTION  -nan(ind)     0.00   672.47     0  00:00        0.00
  285                  JUNCTION  -nan(ind)     0.00   681.46     0  00:00        0.00
  297                  JUNCTION  -nan(ind)     0.00   674.04     0  00:00        0.00
  304                  JUNCTION  -nan(ind)     0.00   674.82     0  00:00        0.00
  306                  JUNCTION  -nan(ind)     0.00   679.95     0  00:00        0.00
  31                   JUNCTION  -nan(ind)     0.00   671.66     0  00:00        0.00
  32                   JUNCTION  -nan(ind)     0.00   697.86     0  00:00        0.00
  323                  JUNCTION  -nan(ind)     0.00   678.64     0  00:00        0.00
  325                  JUNCTION  -nan(ind)     0.00   677.12     0  00:00        0.00
  33                   JUNCTION  -nan(ind)     0.00   693.90     0  00:00        0.00
  333                  JUNCTION  -nan(ind)     0.00   676.84     0  00:00        0.00
  348                  JUNCTION  -nan(ind)     0.00   682.67     0  00:00        0.00
  351                  JUNCTION  -nan(ind)     0.00   675.63     0  00:00        0.00
  371                  JUNCTION  -nan(ind)     0.00   697.06     0  00:00        0.00
  384                  JUNCTION  -nan(ind)     0.00   681.11     0  00:00        0.00
  387                  JUNCTION  -nan(ind)     0.00   693.95     0  00:00        0.00
  393                  JUNCTION  -nan(ind)     0.00   688.33     0  00:00        0.00
  4                    JUNCTION  -nan(ind)     0.00   691.30     0  00:00        0.00
  407                  JUNCTION  -nan(ind)     0.00   708.36     0  00:00        0.00
  46                   JUNCTION  -nan(ind)     0.00   687.27     0  00:00        0.00
  56                   JUNCTION  -nan(ind)     0.00   685.23     0  00:00        0.00
  64                   JUNCTION  -nan(ind)     0.00   688.45     0  00:00        0.00
  7                    JUNCTION  -nan(ind)     0.00   674.51     0  00:00        0.00
  74                   JUNCTION  -nan(ind)     0.00   665.98     0  00:00        0.00
  76                   JUNCTION  -nan(ind)     0.00   688.81     0  00:00        0.00
  77                   JUNCTION  -nan(ind)     0.00   667.45     0  00:00        0.00
  879                  JUNCTION  -nan(ind)     0.00   697.40     0  00:00        0.00
  882                  JUNCTION  -nan(ind)     0.00   692.48     0  00:00        0.00
  893                  JUNCTION  -nan(ind)     0.00   702.68     0  00:00        0.00
  894                  JUNCTION  -nan(ind)     0.00   705.27     0  00:00        0.00
  95                   JUNCTION  -nan(ind)     0.00   694.18     0  00:00        0.00
  956                  JUNCTION  -nan(ind)     0.00   694.37     0  00:00        0.00
  974                  JUNCTION  -nan(ind)     0.00   675.71     0  00:00        0.00
  982                  JUNCTION  -nan(ind)     0.00   675.84     0  00:00        0.00
  JCT-10               JUNCTION  -nan(ind)     0.00   670.02     0  00:00        0.00
  JCT-100              JUNCTION  -nan(ind)     0.00   716.75     0  00:00        0.00
  JCT-102              JUNCTION  -nan(ind)     0.00   716.00     0  00:00        0.00
  JCT-104              JUNCTION  -nan(ind)     0.00   714.94     0  00:00        0.00
  JCT-106              JUNCTION  -nan(ind)     0.00   713.47     0  00:00        0.00
  JCT-108              JUNCTION  -nan(ind)     0.00   712.89     0  00:00        0.00
  JCT-110              JUNCTION  -nan(ind)     0.00   710.77     0  00:00        0.00
  JCT-112              JUNCTION  -nan(ind)     0.00   719.49     0  00:00        0.00
  JCT-114              JUNCTION  -nan(ind)     0.00   719.65     0  00:00        0.00
  JCT-116              JUNCTION  -nan(ind)     0.00   718.81     0  00:00        0.00
  JCT-118              JUNCTION  -nan(ind)     0.00   714.84     0  00:00        0.00
  JCT-12               JUNCTION  -nan(ind)     0.00   669.18     0  00:00        0.00
  JCT-120              JUNCTION  -nan(ind)     0.00   713.40     0  00:00        0.00
  JCT-122              JUNCTION  -nan(ind)     0.00   712.30     0  00:00        0.00
  JCT-124              JUNCTION  -nan(ind)     0.00   708.45     0  00:00        0.00
  JCT-126              JUNCTION  -nan(ind)     0.00   703.29     0  00:00        0.00
  JCT-128              JUNCTION  -nan(ind)     0.00   699.62     0  00:00        0.00
  JCT-130              JUNCTION  -nan(ind)     0.00   715.65     0  00:00        0.00
  JCT-132              JUNCTION  -nan(ind)     0.00   715.44     0  00:00        0.00
  JCT-134              JUNCTION  -nan(ind)     0.00   712.01     0  00:00        0.00
  JCT-136              JUNCTION  -nan(ind)     0.00   707.56     0  00:00        0.00
  JCT-138              JUNCTION  -nan(ind)     0.00   680.00     0  00:00        0.00
  JCT-14               JUNCTION  -nan(ind)     0.00   668.34     0  00:00        0.00
  JCT-140              JUNCTION  -nan(ind)     0.00   682.00     0  00:00        0.00
  JCT-142              JUNCTION  -nan(ind)     0.00   685.00     0  00:00        0.00
  JCT-144              JUNCTION  -nan(ind)     0.00   685.50     0  00:00        0.00
  JCT-146              JUNCTION  -nan(ind)     0.00   686.00     0  00:00        0.00
  JCT-148              JUNCTION  -nan(ind)     0.00   667.70     0  00:00        0.00
  JCT-150              JUNCTION  -nan(ind)     0.00   670.00     0  00:00        0.00
  JCT-152              JUNCTION  -nan(ind)     0.00   675.00     0  00:00        0.00
  JCT-154              JUNCTION  -nan(ind)     0.00   689.00     0  00:00        0.00
  JCT-156              JUNCTION  -nan(ind)     0.00   680.48     0  00:00        0.00
  JCT-16               JUNCTION  -nan(ind)     0.00   696.88     0  00:00        0.00
  JCT-160              JUNCTION  -nan(ind)     0.00   671.03     0  00:00        0.00
  JCT-162              JUNCTION  -nan(ind)     0.00   670.16     0  00:00        0.00
  JCT-164              JUNCTION  -nan(ind)     0.00   667.59     0  00:00        0.00
  JCT-166              JUNCTION  -nan(ind)     0.00   666.94     0  00:00        0.00
  JCT-168              JUNCTION  -nan(ind)     0.00   664.87     0  00:00        0.00
  JCT-170              JUNCTION  -nan(ind)     0.00   663.96     0  00:00        0.00
  JCT-174              JUNCTION  -nan(ind)     0.00   693.27     0  00:00        0.00
  JCT-176              JUNCTION  -nan(ind)     0.00   694.89     0  00:00        0.00
  JCT-178              JUNCTION  -nan(ind)     0.00   698.17     0  00:00        0.00
  JCT-18               JUNCTION  -nan(ind)     0.00   689.98     0  00:00        0.00
  JCT-180              JUNCTION  -nan(ind)     0.00   700.25     0  00:00        0.00
  JCT-182              JUNCTION  -nan(ind)     0.00   702.49     0  00:00        0.00
  JCT-184              JUNCTION  -nan(ind)     0.00   703.00     0  00:00        0.00
  JCT-20               JUNCTION  -nan(ind)     0.00   682.57     0  00:00        0.00
  JCT-22               JUNCTION  -nan(ind)     0.00   669.11     0  00:00        0.00
  JCT-24               JUNCTION  -nan(ind)     0.00   704.83     0  00:00        0.00
  JCT-26               JUNCTION  -nan(ind)     0.00   699.61     0  00:00        0.00
  JCT-28               JUNCTION  -nan(ind)     0.00   685.15     0  00:00        0.00
  JCT-30               JUNCTION  -nan(ind)     0.00   671.61     0  00:00        0.00
  JCT-32               JUNCTION  -nan(ind)     0.00   710.18     0  00:00        0.00
  JCT-34               JUNCTION  -nan(ind)     0.00   703.12     0  00:00        0.00
  JCT-36               JUNCTION  -nan(ind)     0.00   687.39     0  00:00        0.00
  JCT-38               JUNCTION  -nan(ind)     0.00   673.11     0  00:00        0.00
  JCT-40               JUNCTION  -nan(ind)     0.00   703.45     0  00:00        0.00
  JCT-42               JUNCTION  -nan(ind)     0.00   699.39     0  00:00        0.00
  JCT-44               JUNCTION  -nan(ind)     0.00   697.16     0  00:00        0.00
  JCT-46               JUNCTION  -nan(ind)     0.00   681.31     0  00:00        0.00
  JCT-48               JUNCTION  -nan(ind)     0.00   674.61     0  00:00        0.00
  JCT-50               JUNCTION  -nan(ind)     0.00   724.28     0  00:00        0.00
  JCT-52               JUNCTION  -nan(ind)     0.00   721.00     0  00:00        0.00
  JCT-54               JUNCTION  -nan(ind)     0.00   717.67     0  00:00        0.00
  JCT-56               JUNCTION  -nan(ind)     0.00   688.05     0  00:00        0.00
  JCT-58               JUNCTION  -nan(ind)     0.00   686.05     0  00:00        0.00
  JCT-60               JUNCTION  -nan(ind)     0.00   684.21     0  00:00        0.00
  JCT-62               JUNCTION  -nan(ind)     0.00   725.41     0  00:00        0.00
  JCT-64               JUNCTION  -nan(ind)     0.00   711.33     0  00:00        0.00
  JCT-66               JUNCTION  -nan(ind)     0.00   697.57     0  00:00        0.00
  JCT-68               JUNCTION  -nan(ind)     0.00   692.00     0  00:00        0.00
  JCT-70               JUNCTION  -nan(ind)     0.00   717.84     0  00:00        0.00
  JCT-72               JUNCTION  -nan(ind)     0.00   710.40     0  00:00        0.00
  JCT-74               JUNCTION  -nan(ind)     0.00   699.81     0  00:00        0.00
  JCT-76               JUNCTION  -nan(ind)     0.00   697.17     0  00:00        0.00
  JCT-78               JUNCTION  -nan(ind)     0.00   712.19     0  00:00        0.00
  JCT-80               JUNCTION  -nan(ind)     0.00   710.36     0  00:00        0.00
  JCT-82               JUNCTION  -nan(ind)     0.00   715.11     0  00:00        0.00
  JCT-84               JUNCTION  -nan(ind)     0.00   714.03     0  00:00        0.00
  JCT-86               JUNCTION  -nan(ind)     0.00   725.62     0  00:00        0.00
  JCT-88               JUNCTION  -nan(ind)     0.00   722.01     0  00:00        0.00
  JCT-90               JUNCTION  -nan(ind)     0.00   718.89     0  00:00        0.00
  JCT-92               JUNCTION  -nan(ind)     0.00   715.36     0  00:00        0.00
  JCT-94               JUNCTION  -nan(ind)     0.00   711.00     0  00:00        0.00
  JCT-96               JUNCTION  -nan(ind)     0.00   702.00     0  00:00        0.00
  JCT-98               JUNCTION  -nan(ind)     0.00   720.80     0  00:00        0.00
  OFALL-10             OUTFALL   -nan(ind)     0.00   680.00     0  00:00        0.00
  OFALL-12             OUTFALL   -nan(ind)     0.00   660.00     0  00:00        0.00
  VIADUCT1             OUTFALL   -nan(ind)     0.00   696.00     0  00:00        0.00
  VIADUCT2             OUTFALL   -nan(ind)     0.00   692.00     0  00:00        0.00
  1114                 STORAGE   -nan(ind)     0.00   683.64     0  00:00        0.00
  1115                 STORAGE   -nan(ind)     0.00   682.50     0  00:00        0.00
  117                  STORAGE   -nan(ind)     0.00   666.80     0  00:00        0.00
  163                  STORAGE   -nan(ind)     0.00   668.13     0  00:00        0.00
  17                   STORAGE   -nan(ind)     0.00   682.94     0  00:00        0.00
  187                  STORAGE   -nan(ind)     0.00   671.58     0  00:00        0.00
  229                  STORAGE   -nan(ind)     0.00   674.01     0  00:00        0.00
  421                  STORAGE   -nan(ind)     0.00   705.55     0  00:00        0.00
  83                   STORAGE   -nan(ind)     0.00   660.50     0  00:00        0.00
  989                  STORAGE   -nan(ind)     0.00   684.03     0  00:00        0.00
  STOR-10              STORAGE   -nan(ind)     0.00   680.00     0  00:00        0.00
  STOR-12              STORAGE   -nan(ind)     0.00   685.00     0  00:00        0.00
  STOR-14              STORAGE   -nan(ind)     0.00   657.50     0  00:00        0.00
  STOR-16              STORAGE   -nan(ind)     0.00   652.83     0  00:00        0.00
  
  
  *******************
  Node Inflow Summary
  *******************
  
  -------------------------------------------------------------------------------------------------
                                  Maximum  Maximum                  Lateral       Total        Flow
                                  Lateral    Total  Time of Max      Inflow      Inflow     Balance
                                   Inflow   Inflow   Occurrence      Volume      Volume       Error
  Node                 Type           CFS      CFS  days hr:min    10^6 gal    10^6 gal     Percent
  -------------------------------------------------------------------------------------------------
  1001                 JUNCTION      0.00     0.00     0  00:00           0           0       0.000 gal
  105                  JUNCTION      0.00     0.00     0  00:00           0           0       0.000 gal
  13                   JUNCTION      0.00     0.00     0  00:00           0           0       0.000 gal
  136                  JUNCTION      0.00     0.00     0  00:00           0           0       0.000 gal
  137                  JUNCTION      0.00     0.00     0  00:00           0           0       0.000 gal
  140                  JUNCTION      0.00     0.00     0  00:00           0           0       0.000 gal
  144                  JUNCTION      0.00     0.00     0  00:00           0           0       0.000 gal
  147                  JUNCTION      0.00     0.00     0  00:00           0           0       0.000 gal
  15                   JUNCTION      0.00     0.00     0  00:00           0           0       0.000 gal
  150                  JUNCTION      0.00     0.00     0  00:00           0           0       0.000 gal
  158                  JUNCTION      0.00     0.00     0  00:00           0           0       0.000 gal
  166                  JUNCTION      0.00     0.00     0  00:00           0           0       0.000 gal
  173                  JUNCTION      0.00     0.00     0  00:00           0           0       0.000 gal
  179                  JUNCTION      0.00     0.00     0  00:00           0           0       0.000 gal
  18                   JUNCTION      0.00     0.00     0  00:00           0           0       0.000 gal
  183                  JUNCTION      0.00     0.00     0  00:00           0           0       0.000 gal
  19                   JUNCTION      0.00     0.00     0  00:00           0           0       0.000 gal
  200                  JUNCTION      0.00     0.00     0  00:00           0           0       0.000 gal
  201                  JUNCTION      0.00     0.00     0  00:00           0           0       0.000 gal
  205                  JUNCTION      0.00     0.00     0  00:00           0           0       0.000 gal
  209                  JUNCTION      0.00     0.00     0  00:00           0           0       0.000 gal
  232                  JUNCTION      0.00     0.00     0  00:00           0           0       0.000 gal
  244                  JUNCTION      0.00     0.00     0  00:00           0           0       0.000 gal
  25                   JUNCTION      0.00     0.00     0  00:00           0           0       0.000 gal
  255                  JUNCTION      0.00     0.00     0  00:00           0           0       0.000 gal
  257                  JUNCTION      0.00     0.00     0  00:00           0           0       0.000 gal
  26                   JUNCTION      0.00     0.00     0  00:00           0           0       0.000 gal
  260                  JUNCTION      0.00     0.00     0  00:00           0           0       0.000 gal
  261                  JUNCTION      0.00     0.00     0  00:00           0           0       0.000 gal
  267                  JUNCTION      0.00     0.00     0  00:00           0           0       0.000 gal
  269                  JUNCTION      0.00     0.00     0  00:00           0           0       0.000 gal
  276                  JUNCTION      0.00     0.00     0  00:00           0           0       0.000 gal
  281                  JUNCTION      0.00     0.00     0  00:00           0           0       0.000 gal
  285                  JUNCTION      0.00     0.00     0  00:00           0           0       0.000 gal
  297                  JUNCTION      0.00     0.00     0  00:00           0           0       0.000 gal
  304                  JUNCTION      0.00     0.00     0  00:00           0           0       0.000 gal
  306                  JUNCTION      0.00     0.00     0  00:00           0           0       0.000 gal
  31                   JUNCTION      0.00     0.00     0  00:00           0           0       0.000 gal
  32                   JUNCTION      0.00     0.00     0  00:00           0           0       0.000 gal
  323                  JUNCTION      0.00     0.00     0  00:00           0           0       0.000 gal
  325                  JUNCTION      0.00     0.00     0  00:00           0           0       0.000 gal
  33                   JUNCTION      0.00     0.00     0  00:00           0           0       0.000 gal
  333                  JUNCTION      0.00     0.00     0  00:00           0           0       0.000 gal
  348                  JUNCTION      0.00     0.00     0  00:00           0           0       0.000 gal
  351                  JUNCTION      0.00     0.00     0  00:00           0           0       0.000 gal
  371                  JUNCTION      0.00     0.00     0  00:00           0           0       0.000 gal
  384                  JUNCTION      0.00     0.00     0  00:00           0           0       0.000 gal
  387                  JUNCTION      0.00     0.00     0  00:00           0           0       0.000 gal
  393                  JUNCTION      0.00     0.00     0  00:00           0           0       0.000 gal
  4                    JUNCTION      0.00     0.00     0  00:00           0           0       0.000 gal
  407                  JUNCTION      0.00     0.00     0  00:00           0           0       0.000 gal
  46                   JUNCTION      0.00     0.00     0  00:00           0           0       0.000 gal
  56                   JUNCTION      0.00     0.00     0  00:00           0           0       0.000 gal
  64                   JUNCTION      0.00     0.00     0  00:00           0           0       0.000 gal
  7                    JUNCTION      0.00     0.00     0  00:00           0           0       0.000 gal
  74                   JUNCTION      0.00     0.00     0  00:00           0           0       0.000 gal
  76                   JUNCTION      0.00     0.00     0  00:00           0           0       0.000 gal
  77                   JUNCTION      0.00     0.00     0  00:00           0           0       0.000 gal
  879                  JUNCTION      0.00     0.00     0  00:00           0           0       0.000 gal
  882                  JUNCTION      0.00     0.00     0  00:00           0           0       0.000 gal
  893                  JUNCTION      0.00     0.00     0  00:00           0           0       0.000 gal
  894                  JUNCTION      0.00     0.00     0  00:00           0           0       0.000 gal
  95                   JUNCTION      0.00     0.00     0  00:00           0           0       0.000 gal
  956                  JUNCTION      0.00     0.00     0  00:00           0           0       0.000 gal
  974                  JUNCTION      0.00     0.00     0  00:00           0           0       0.000 gal
  982                  JUNCTION      0.00     0.00     0  00:00           0           0       0.000 gal
  JCT-10               JUNCTION      0.00     0.00     0  00:00           0           0       0.000 gal
  JCT-100              JUNCTION      0.00     0.00     0  00:00           0           0       0.000 gal
  JCT-102              JUNCTION      0.00     0.00     0  00:00           0           0       0.000 gal
  JCT-104              JUNCTION      0.00     0.00     0  00:00           0           0       0.000 gal
  JCT-106              JUNCTION      0.00     0.00     0  00:00           0           0       0.000 gal
  JCT-108              JUNCTION      0.00     0.00     0  00:00           0           0       0.000 gal
  JCT-110              JUNCTION      0.00     0.00     0  00:00           0           0       0.000 gal
  JCT-112              JUNCTION      0.00     0.00     0  00:00           0           0       0.000 gal
  JCT-114              JUNCTION      0.00     0.00     0  00:00           0           0       0.000 gal
  JCT-116              JUNCTION      0.00     0.00     0  00:00           0           0       0.000 gal
  JCT-118              JUNCTION      0.00     0.00     0  00:00           0           0       0.000 gal
  JCT-12               JUNCTION      0.00     0.00     0  00:00           0           0       0.000 gal
  JCT-120              JUNCTION      0.00     0.00     0  00:00           0           0       0.000 gal
  JCT-122              JUNCTION      0.00     0.00     0  00:00           0           0       0.000 gal
  JCT-124              JUNCTION      0.00     0.00     0  00:00           0           0       0.000 gal
  JCT-126              JUNCTION      0.00     0.00     0  00:00           0           0       0.000 gal
  JCT-128              JUNCTION      0.00     0.00     0  00:00           0           0       0.000 gal
  JCT-130              JUNCTION      0.00     0.00     0  00:00           0           0       0.000 gal
  JCT-132              JUNCTION      0.00     0.00     0  00:00           0           0       0.000 gal
  JCT-134              JUNCTION      0.00     0.00     0  00:00           0           0       0.000 gal
  JCT-136              JUNCTION      0.00     0.00     0  00:00           0           0       0.000 gal
  JCT-138              JUNCTION      0.00     0.00     0  00:00           0           0       0.000 gal
  JCT-14               JUNCTION      0.00     0.00     0  00:00           0           0       0.000 gal
  JCT-140              JUNCTION      0.00     0.00     0  00:00           0           0       0.000 gal
  JCT-142              JUNCTION      0.00     0.00     0  00:00           0           0       0.000 gal
  JCT-144              JUNCTION      0.00     0.00     0  00:00           0           0       0.000 gal
  JCT-146              JUNCTION      0.00     0.00     0  00:00           0           0       0.000 gal
  JCT-148              JUNCTION      0.00     0.00     0  00:00           0           0       0.000 gal
  JCT-150              JUNCTION      0.00     0.00     0  00:00           0           0       0.000 gal
  JCT-152              JUNCTION      0.00     0.00     0  00:00           0           0       0.000 gal
  JCT-154              JUNCTION      0.00     0.00     0  00:00           0           0       0.000 gal
  JCT-156              JUNCTION      0.00     0.00     0  00:00           0           0       0.000 gal
  JCT-16               JUNCTION      0.00     0.00     0  00:00           0           0       0.000 gal
  JCT-160              JUNCTION      0.00     0.00     0  00:00           0           0       0.000 gal
  JCT-162              JUNCTION      0.00     0.00     0  00:00           0           0       0.000 gal
  JCT-164              JUNCTION      0.00     0.00     0  00:00           0           0       0.000 gal
  JCT-166              JUNCTION      0.00     0.00     0  00:00           0           0       0.000 gal
  JCT-168              JUNCTION      0.00     0.00     0  00:00           0           0       0.000 gal
  JCT-170              JUNCTION      0.00     0.00     0  00:00           0           0       0.000 gal
  JCT-174              JUNCTION      0.00     0.00     0  00:00           0           0       0.000 gal
  JCT-176              JUNCTION      0.00     0.00     0  00:00           0           0       0.000 gal
  JCT-178              JUNCTION      0.00     0.00     0  00:00           0           0       0.000 gal
  JCT-18               JUNCTION      0.00     0.00     0  00:00           0           0       0.000 gal
  JCT-180              JUNCTION      0.00     0.00     0  00:00           0           0       0.000 gal
  JCT-182              JUNCTION      0.00     0.00     0  00:00           0           0       0.000 gal
  JCT-184              JUNCTION      0.00     0.00     0  00:00           0           0       0.000 gal
  JCT-20               JUNCTION      0.00     0.00     0  00:00           0           0       0.000 gal
  JCT-22               JUNCTION      0.00     0.00     0  00:00           0           0       0.000 gal
  JCT-24               JUNCTION      0.00     0.00     0  00:00           0           0       0.000 gal
  JCT-26               JUNCTION      0.00     0.00     0  00:00           0           0       0.000 gal
  JCT-28               JUNCTION      0.00     0.00     0  00:00           0           0       0.000 gal
  JCT-30               JUNCTION      0.00     0.00     0  00:00           0           0       0.000 gal
  JCT-32               JUNCTION      0.00     0.00     0  00:00           0           0       0.000 gal
  JCT-34               JUNCTION      0.00     0.00     0  00:00           0           0       0.000 gal
  JCT-36               JUNCTION      0.00     0.00     0  00:00           0           0       0.000 gal
  JCT-38               JUNCTION      0.00     0.00     0  00:00           0           0       0.000 gal
  JCT-40               JUNCTION      0.00     0.00     0  00:00           0           0       0.000 gal
  JCT-42               JUNCTION      0.00     0.00     0  00:00           0           0       0.000 gal
  JCT-44               JUNCTION      0.00     0.00     0  00:00           0           0       0.000 gal
  JCT-46               JUNCTION      0.00     0.00     0  00:00           0           0       0.000 gal
  JCT-48               JUNCTION      0.00     0.00     0  00:00           0           0       0.000 gal
  JCT-50               JUNCTION      0.00     0.00     0  00:00           0           0       0.000 gal
  JCT-52               JUNCTION      0.00     0.00     0  00:00           0           0       0.000 gal
  JCT-54               JUNCTION      0.00     0.00     0  00:00           0           0       0.000 gal
  JCT-56               JUNCTION      0.00     0.00     0  00:00           0           0       0.000 gal
  JCT-58               JUNCTION      0.00     0.00     0  00:00           0           0       0.000 gal
  JCT-60               JUNCTION      0.00     0.00     0  00:00           0           0       0.000 gal
  JCT-62               JUNCTION      0.00     0.00     0  00:00           0           0       0.000 gal
  JCT-64               JUNCTION      0.00     0.00     0  00:00           0           0       0.000 gal
  JCT-66               JUNCTION      0.00     0.00     0  00:00           0           0       0.000 gal
  JCT-68               JUNCTION      0.00     0.00     0  00:00           0           0       0.000 gal
  JCT-70               JUNCTION      0.00     0.00     0  00:00           0           0       0.000 gal
  JCT-72               JUNCTION      0.00     0.00     0  00:00           0           0       0.000 gal
  JCT-74               JUNCTION      0.00     0.00     0  00:00           0           0       0.000 gal
  JCT-76               JUNCTION      0.00     0.00     0  00:00           0           0       0.000 gal
  JCT-78               JUNCTION      0.00     0.00     0  00:00           0           0       0.000 gal
  JCT-80               JUNCTION      0.00     0.00     0  00:00           0           0       0.000 gal
  JCT-82               JUNCTION      0.00     0.00     0  00:00           0           0       0.000 gal
  JCT-84               JUNCTION      0.00     0.00     0  00:00           0           0       0.000 gal
  JCT-86               JUNCTION      0.00     0.00     0  00:00           0           0       0.000 gal
  JCT-88               JUNCTION      0.00     0.00     0  00:00           0           0       0.000 gal
  JCT-90               JUNCTION      0.00     0.00     0  00:00           0           0       0.000 gal
  JCT-92               JUNCTION      0.00     0.00     0  00:00           0           0       0.000 gal
  JCT-94               JUNCTION      0.00     0.00     0  00:00           0           0       0.000 gal
  JCT-96               JUNCTION      0.00     0.00     0  00:00           0           0       0.000 gal
  JCT-98               JUNCTION      0.00     0.00     0  00:00           0           0       0.000 gal
  OFALL-10             OUTFALL       0.00     0.00     0  00:00           0           0       0.000 gal
  OFALL-12             OUTFALL       0.00     0.00     0  00:00           0           0       0.000 gal
  VIADUCT1             OUTFALL       0.00     0.00     0  00:00           0           0       0.000 gal
  VIADUCT2             OUTFALL       0.00     0.00     0  00:00           0           0       0.000 gal
  1114                 STORAGE       0.00     0.00     0  00:00           0           0       0.000 gal
  1115                 STORAGE       0.00     0.00     0  00:00           0           0       0.000 gal
  117                  STORAGE       0.00     0.00     0  00:00           0           0       0.000 gal
  163                  STORAGE       0.00     0.00     0  00:00           0           0       0.000 gal
  17                   STORAGE       0.00     0.00     0  00:00           0           0       0.000 gal
  187                  STORAGE       0.00     0.00     0  00:00           0           0       0.000 gal
  229                  STORAGE       0.00     0.00     0  00:00           0           0       0.000 gal
  421                  STORAGE       0.00     0.00     0  00:00           0           0       0.000 gal
  83                   STORAGE       0.00     0.00     0  00:00           0           0       0.000 gal
  989                  STORAGE       0.00     0.00     0  00:00           0           0       0.000 gal
  STOR-10              STORAGE       0.00     0.00     0  00:00           0           0       0.000 gal
  STOR-12              STORAGE       0.00     0.00     0  00:00           0           0       0.000 gal
  STOR-14              STORAGE       0.00     0.00     0  00:00           0           0       0.000 gal
  STOR-16              STORAGE       0.00     0.00     0  00:00           0           0       0.000 gal
  
  
  **********************
  Node Surcharge Summary
  **********************
  
  No nodes were surcharged.
  
  
  *********************
  Node Flooding Summary
  *********************
  
  No nodes were flooded.
  
  
  **********************
  Storage Volume Summary
  **********************
  
  --------------------------------------------------------------------------------------------------
                         Average     Avg  Evap Exfil       Maximum     Max    Time of Max    Maximum
                          Volume    Pcnt  Pcnt  Pcnt        Volume    Pcnt     Occurrence    Outflow
  Storage Unit          1000 ft3    Full  Loss  Loss      1000 ft3    Full    days hr:min        CFS
  --------------------------------------------------------------------------------------------------
  1114                 -nan(ind)    -nan(ind)     0     0         0.000       0       0  00:00       0.00
  1115                 -nan(ind)    -nan(ind)     0     0         0.000       0       0  00:00       0.00
  117                  -nan(ind)    -nan(ind)     0     0         0.000       0       0  00:00       0.00
  163                  -nan(ind)    -nan(ind)     0     0         0.000       0       0  00:00       0.00
  17                   -nan(ind)    -nan(ind)     0     0         0.000       0       0  00:00       0.00
  187                  -nan(ind)    -nan(ind)     0     0         0.000       0       0  00:00       0.00
  229                  -nan(ind)    -nan(ind)     0     0         0.000       0       0  00:00       0.00
  421                  -nan(ind)    -nan(ind)     0     0         0.000       0       0  00:00       0.00
  83                   -nan(ind)    -nan(ind)     0     0         0.000       0       0  00:00       0.00
  989                  -nan(ind)    -nan(ind)     0     0         0.000       0       0  00:00       0.00
  STOR-10              -nan(ind)    -nan(ind)     0     0         0.000       0       0  00:00       0.00
  STOR-12              -nan(ind)    -nan(ind)     0     0         0.000       0       0  00:00       0.00
  STOR-14              -nan(ind)    -nan(ind)     0     0         0.000       0       0  00:00       0.00
  STOR-16              -nan(ind)    -nan(ind)     0     0         0.000       0       0  00:00       0.00
  
  
  ***********************
  Outfall Loading Summary
  ***********************
  
  ---------------------------------------------------------------------------------------
                         Flow       Avg       Max       Total         Total         Total
                         Freq      Flow      Flow      Volume            TN           TSS
  Outfall Node           Pcnt       CFS       CFS    10^6 gal           lbs           lbs
  ---------------------------------------------------------------------------------------
  OFALL-10            -nan(ind)      0.00      0.00       0.000         0.000         0.000
  OFALL-12            -nan(ind)      0.00      0.00       0.000         0.000         0.000
  VIADUCT1            -nan(ind)      0.00      0.00       0.000         0.000         0.000
  VIADUCT2            -nan(ind)      0.00      0.00       0.000         0.000         0.000
  ---------------------------------------------------------------------------------------
  System              -nan(ind)      0.00      0.00       0.000         0.000         0.000
  
  
  ********************
  Link Flow Summary
  ********************
  
  -----------------------------------------------------------------------------
                                 Maximum  Time of Max   Maximum    Max/    Max/
                                  |Flow|   Occurrence   |Veloc|    Full    Full
  Link                 Type          CFS  days hr:min    ft/sec    Flow   Depth
  -----------------------------------------------------------------------------
  1001OF               CONDUIT      0.00     0  00:00      0.00    0.00    0.00
  105OF                CONDUIT      0.00     0  00:00      0.00    0.00    0.00
  1114                 CONDUIT      0.00     0  00:00      0.00    0.00    0.00
  117                  CONDUIT      0.00     0  00:00      0.00    0.00    0.00
  117OF                CONDUIT      0.00     0  00:00      0.00    0.00    0.00
  1209                 CONDUIT      0.00     0  00:00      0.00    0.00    0.00
  1211                 CONDUIT      0.00     0  00:00      0.00    0.00    0.00
  1225                 CONDUIT      0.00     0  00:00      0.00    0.00    0.00
  1226                 CONDUIT      0.00     0  00:00      0.00    0.00    0.00
  1228                 CONDUIT      0.00     0  00:00      0.00    0.00    0.00
  1230                 CONDUIT      0.00     0  00:00      0.00    0.00    0.00
  1249                 CONDUIT      0.00     0  00:00      0.00    0.00    0.00
  1269                 CONDUIT      0.00     0  00:00      0.00    0.00    0.00
  1270                 CONDUIT      0.00     0  00:00      0.00    0.00    0.00
  1275                 CONDUIT      0.00     0  00:00      0.00    0.00    0.00
  1276                 CONDUIT      0.00     0  00:00      0.00    0.00    0.00
  1277                 CONDUIT      0.00     0  00:00      0.00    0.00    0.00
  1281                 CONDUIT      0.00     0  00:00      0.00    0.00    0.00
  1284                 CONDUIT      0.00     0  00:00      0.00    0.00    0.00
  1285                 CONDUIT      0.00     0  00:00      0.00    0.00    0.00
  1288                 CONDUIT      0.00     0  00:00      0.00    0.00    0.00
  1289                 CONDUIT      0.00     0  00:00      0.00    0.00    0.00
  1290                 CONDUIT      0.00     0  00:00      0.00    0.00    0.00
  1291                 CONDUIT      0.00     0  00:00      0.00    0.00    0.00
  1293                 CONDUIT      0.00     0  00:00      0.00    0.00    0.00
  1294                 CONDUIT      0.00     0  00:00      0.00    0.00    0.00
  1297                 CONDUIT      0.00     0  00:00      0.00    0.00    0.00
  1298                 CONDUIT      0.00     0  00:00      0.00    0.00    0.00
  1299                 CONDUIT      0.00     0  00:00      0.00    0.00    0.00
  1300                 CONDUIT      0.00     0  00:00      0.00    0.00    0.00
  1306                 CONDUIT      0.00     0  00:00      0.00    0.00    0.00
  1307                 CONDUIT      0.00     0  00:00      0.00    0.00    0.00
  1308                 CONDUIT      0.00     0  00:00      0.00    0.00    0.00
  1312                 CONDUIT      0.00     0  00:00      0.00    0.00    0.00
  1314                 CONDUIT      0.00     0  00:00      0.00    0.00    0.00
  1315                 CONDUIT      0.00     0  00:00      0.00    0.00    0.00
  1316                 CONDUIT      0.00     0  00:00      0.00    0.00    0.00
  1317                 CONDUIT      0.00     0  00:00      0.00    0.00    0.00
  1328                 CONDUIT      0.00     0  00:00      0.00    0.00    0.00
  136OF                CONDUIT      0.00     0  00:00      0.00    0.00    0.00
  13OF                 CONDUIT      0.00     0  00:00      0.00    0.00    0.00
  140OF                CONDUIT      0.00     0  00:00      0.00    0.00    0.00
  144                  CONDUIT      0.00     0  00:00      0.00    0.00    0.00
  144OF                CONDUIT      0.00     0  00:00      0.00    0.00    0.00
  150OF                CONDUIT      0.00     0  00:00      0.00    0.00    0.00
  158                  CONDUIT      0.00     0  00:00      0.00    0.00    0.00
  158OF                CONDUIT      0.00     0  00:00      0.00    0.00    0.00
  15OF                 CONDUIT      0.00     0  00:00      0.00    0.00    0.00
  163OF                CONDUIT      0.00     0  00:00      0.00    0.00    0.00
  166OF                CONDUIT      0.00     0  00:00      0.00    0.00    0.00
  1791OF               CONDUIT      0.00     0  00:00      0.00    0.00    0.00
  179OF                CONDUIT      0.00     0  00:00      0.00    0.00    0.00
  17OF                 CONDUIT      0.00     0  00:00      0.00    0.00    0.00
  183OF                CONDUIT      0.00     0  00:00      0.00    0.00    0.00
  187OF                CONDUIT      0.00     0  00:00      0.00    0.00    0.00
  18OF                 CONDUIT      0.00     0  00:00      0.00    0.00    0.00
  191OF                CONDUIT      0.00     0  00:00      0.00    0.00    0.00
  19OF                 CONDUIT      0.00     0  00:00      0.00    0.00    0.00
  200                  CONDUIT      0.00     0  00:00      0.00    0.00    0.00
  200OF                CONDUIT      0.00     0  00:00      0.00    0.00    0.00
  201OF                CONDUIT      0.00     0  00:00      0.00    0.00    0.00
  205OF                CONDUIT      0.00     0  00:00      0.00    0.00    0.00
  209OFA               CONDUIT      0.00     0  00:00      0.00    0.00    0.00
  229OF                CONDUIT      0.00     0  00:00      0.00    0.00    0.00
  229OFB               CONDUIT      0.00     0  00:00      0.00    0.00    0.00
  232OF                CONDUIT      0.00     0  00:00      0.00    0.00    0.00
  244OF                CONDUIT      0.00     0  00:00      0.00    0.00    0.00
  257OF                CONDUIT      0.00     0  00:00      0.00    0.00    0.00
  25OF                 CONDUIT      0.00     0  00:00      0.00    0.00    0.00
  2601OF               CONDUIT      0.00     0  00:00      0.00    0.00    0.00
  260OF                CONDUIT      0.00     0  00:00      0.00    0.00    0.00
  267OF                CONDUIT      0.00     0  00:00      0.00    0.00    0.00
  269OF                CONDUIT      0.00     0  00:00      0.00    0.00    0.00
  276OF                CONDUIT      0.00     0  00:00      0.00    0.00    0.00
  281OF                CONDUIT      0.00     0  00:00      0.00    0.00    0.00
  2851OF               CONDUIT      0.00     0  00:00      0.00    0.00    0.00
  285OF                CONDUIT      0.00     0  00:00      0.00    0.00    0.00
  297OF                CONDUIT      0.00     0  00:00      0.00    0.00    0.00
  306OF                CONDUIT      0.00     0  00:00      0.00    0.00    0.00
  3084                 CONDUIT      0.00     0  00:00      0.00    0.00    0.00
  3091                 CONDUIT      0.00     0  00:00      0.00    0.00    0.00
  31OF                 CONDUIT      0.00     0  00:00      0.00    0.00    0.00
  3231OF               CONDUIT      0.00     0  00:00      0.00    0.00    0.00
  323OF                CONDUIT      0.00     0  00:00      0.00    0.00    0.00
  325OF                CONDUIT      0.00     0  00:00      0.00    0.00    0.00
  3289                 CONDUIT      0.00     0  00:00      0.00    0.00    0.00
  3293                 CONDUIT      0.00     0  00:00      0.00    0.00    0.00
  32OF                 CONDUIT      0.00     0  00:00      0.00    0.00    0.00
  3339                 CONDUIT      0.00     0  00:00      0.00    0.00    0.00
  3349                 CONDUIT      0.00     0  00:00      0.00    0.00    0.00
  3355                 CONDUIT      0.00     0  00:00      0.00    0.00    0.00
  3423                 CONDUIT      0.00     0  00:00      0.00    0.00    0.00
  3424                 CONDUIT      0.00     0  00:00      0.00    0.00    0.00
  348OF                CONDUIT      0.00     0  00:00      0.00    0.00    0.00
  3493                 CONDUIT      0.00     0  00:00      0.00    0.00    0.00
  3510                 CONDUIT      0.00     0  00:00      0.00    0.00    0.00
  3511                 CONDUIT      0.00     0  00:00      0.00    0.00    0.00
  351OF                CONDUIT      0.00     0  00:00      0.00    0.00    0.00
  3521                 CONDUIT      0.00     0  00:00      0.00    0.00    0.00
  3527                 CONDUIT      0.00     0  00:00      0.00    0.00    0.00
  3629                 CONDUIT      0.00     0  00:00      0.00    0.00    0.00
  3656                 CONDUIT      0.00     0  00:00      0.00    0.00    0.00
  3682                 CONDUIT      0.00     0  00:00      0.00    0.00    0.00
  3690                 CONDUIT      0.00     0  00:00      0.00    0.00    0.00
  371OF                CONDUIT      0.00     0  00:00      0.00    0.00    0.00
  3843                 CONDUIT      0.00     0  00:00      0.00    0.00    0.00
  384OF                CONDUIT      0.00     0  00:00      0.00    0.00    0.00
  3860                 CONDUIT      0.00     0  00:00      0.00    0.00    0.00
  3873                 CONDUIT      0.00     0  00:00      0.00    0.00    0.00
  387OF                CONDUIT      0.00     0  00:00      0.00    0.00    0.00
  4030                 CONDUIT      0.00     0  00:00      0.00    0.00    0.00
  4043                 CONDUIT      0.00     0  00:00      0.00    0.00    0.00
  407OF                CONDUIT      0.00     0  00:00      0.00    0.00    0.00
  4103                 CONDUIT      0.00     0  00:00      0.00    0.00    0.00
  4117                 CONDUIT      0.00     0  00:00      0.00    0.00    0.00
  4130                 CONDUIT      0.00     0  00:00      0.00    0.00    0.00
  4155                 CONDUIT      0.00     0  00:00      0.00    0.00    0.00
  4195                 CONDUIT      0.00     0  00:00      0.00    0.00    0.00
  4202                 CONDUIT      0.00     0  00:00      0.00    0.00    0.00
  4203                 CONDUIT      0.00     0  00:00      0.00    0.00    0.00
  421OF                CONDUIT      0.00     0  00:00      0.00    0.00    0.00
  4220                 CONDUIT      0.00     0  00:00      0.00    0.00    0.00
  4232                 CONDUIT      0.00     0  00:00      0.00    0.00    0.00
  4OF                  CONDUIT      0.00     0  00:00      0.00    0.00    0.00
  5002                 CONDUIT      0.00     0  00:00      0.00    0.00    0.00
  5003                 CONDUIT      0.00     0  00:00      0.00    0.00    0.00
  77OF                 CONDUIT      0.00     0  00:00      0.00    0.00    0.00
  7OF                  CONDUIT      0.00     0  00:00      0.00    0.00    0.00
  879OF                CONDUIT      0.00     0  00:00      0.00    0.00    0.00
  882OF                CONDUIT      0.00     0  00:00      0.00    0.00    0.00
  893OF                CONDUIT      0.00     0  00:00      0.00    0.00    0.00
  8941OF               CONDUIT      0.00     0  00:00      0.00    0.00    0.00
  894OF                CONDUIT      0.00     0  00:00      0.00    0.00    0.00
  9561OF               CONDUIT      0.00     0  00:00      0.00    0.00    0.00
  9562OF               CONDUIT      0.00     0  00:00      0.00    0.00    0.00
  956OF                CONDUIT      0.00     0  00:00      0.00    0.00    0.00
  95OF                 CONDUIT      0.00     0  00:00      0.00    0.00    0.00
  974OF                CONDUIT      0.00     0  00:00      0.00    0.00    0.00
  982OF                CONDUIT      0.00     0  00:00      0.00    0.00    0.00
  989OF                CONDUIT      0.00     0  00:00      0.00    0.00    0.00
  CDT-101              CONDUIT      0.00     0  00:00      0.00    0.00    0.00
  CDT-103              CONDUIT      0.00     0  00:00      0.00    0.00    0.00
  CDT-105              CONDUIT      0.00     0  00:00      0.00    0.00    0.00
  CDT-107              CONDUIT      0.00     0  00:00      0.00    0.00    0.00
  CDT-109              CONDUIT      0.00     0  00:00      0.00    0.00    0.00
  CDT-11               CONDUIT      0.00     0  00:00      0.00    0.00    0.00
  CDT-111              CONDUIT      0.00     0  00:00      0.00    0.00    0.00
  CDT-113              CONDUIT      0.00     0  00:00      0.00    0.00    0.00
  CDT-115              CONDUIT      0.00     0  00:00      0.00    0.00    0.00
  CDT-117              CONDUIT      0.00     0  00:00      0.00    0.00    0.00
  CDT-119              CONDUIT      0.00     0  00:00      0.00    0.00    0.00
  CDT-121              CONDUIT      0.00     0  00:00      0.00    0.00    0.00
  CDT-123              CONDUIT      0.00     0  00:00      0.00    0.00    0.00
  CDT-125              CONDUIT      0.00     0  00:00      0.00    0.00    0.00
  CDT-127              CONDUIT      0.00     0  00:00      0.00    0.00    0.00
  CDT-129              CONDUIT      0.00     0  00:00      0.00    0.00    0.00
  CDT-13               CONDUIT      0.00     0  00:00      0.00    0.00    0.00
  CDT-131              CONDUIT      0.00     0  00:00      0.00    0.00    0.00
  CDT-133              CONDUIT      0.00     0  00:00      0.00    0.00    0.00
  CDT-135              CONDUIT      0.00     0  00:00      0.00    0.00    0.00
  CDT-137              CONDUIT      0.00     0  00:00      0.00    0.00    0.00
  CDT-141              CONDUIT      0.00     0  00:00      0.00    0.00    0.00
  CDT-143              CONDUIT      0.00     0  00:00      0.00    0.00    0.00
  CDT-147              CONDUIT      0.00     0  00:00      0.00    0.00    0.00
  CDT-149              CONDUIT      0.00     0  00:00      0.00    0.00    0.00
  CDT-15               CONDUIT      0.00     0  00:00      0.00    0.00    0.00
  CDT-151              CONDUIT      0.00     0  00:00      0.00    0.00    0.00
  CDT-153              CONDUIT      0.00     0  00:00      0.00    0.00    0.00
  CDT-155              CONDUIT      0.00     0  00:00      0.00    0.00    0.00
  CDT-157              CONDUIT      0.00     0  00:00      0.00    0.00    0.00
  CDT-159              CONDUIT      0.00     0  00:00      0.00    0.00    0.00
  CDT-161              CONDUIT      0.00     0  00:00      0.00    0.00    0.00
  CDT-163              CHANNEL      0.00     0  00:00      0.00    0.00    0.00
  CDT-165              CHANNEL      0.00     0  00:00      0.00    0.00    0.00
  CDT-167              CHANNEL      0.00     0  00:00      0.00    0.00    0.00
  CDT-169              CHANNEL      0.00     0  00:00      0.00    0.00    0.00
  CDT-17               CONDUIT      0.00     0  00:00      0.00    0.00    0.00
  CDT-171              CHANNEL      0.00     0  00:00      0.00    0.00    0.00
  CDT-175              CHANNEL      0.00     0  00:00      0.00    0.00    0.00
  CDT-19               CONDUIT      0.00     0  00:00      0.00    0.00    0.00
  CDT-21               CONDUIT      0.00     0  00:00      0.00    0.00    0.00
  CDT-23               CONDUIT      0.00     0  00:00      0.00    0.00    0.00
  CDT-25               CONDUIT      0.00     0  00:00      0.00    0.00    0.00
  CDT-27               CONDUIT      0.00     0  00:00      0.00    0.00    0.00
  CDT-29               CONDUIT      0.00     0  00:00      0.00    0.00    0.00
  CDT-31               CONDUIT      0.00     0  00:00      0.00    0.00    0.00
  CDT-33               CONDUIT      0.00     0  00:00      0.00    0.00    0.00
  CDT-35               CONDUIT      0.00     0  00:00      0.00    0.00    0.00
  CDT-37               CONDUIT      0.00     0  00:00      0.00    0.00    0.00
  CDT-39               CONDUIT      0.00     0  00:00      0.00    0.00    0.00
  CDT-41               CONDUIT      0.00     0  00:00      0.00    0.00    0.00
  CDT-43               CONDUIT      0.00     0  00:00      0.00    0.00    0.00
  CDT-45               CONDUIT      0.00     0  00:00      0.00    0.00    0.00
  CDT-47               CONDUIT      0.00     0  00:00      0.00    0.00    0.00
  CDT-49               CONDUIT      0.00     0  00:00      0.00    0.00    0.00
  CDT-51               CONDUIT      0.00     0  00:00      0.00    0.00    0.00
  CDT-53               CONDUIT      0.00     0  00:00      0.00    0.00    0.00
  CDT-55               CONDUIT      0.00     0  00:00      0.00    0.00    0.00
  CDT-57               CONDUIT      0.00     0  00:00      0.00    0.00    0.00
  CDT-59               CONDUIT      0.00     0  00:00      0.00    0.00    0.00
  CDT-61               CONDUIT      0.00     0  00:00      0.00    0.00    0.00
  CDT-63               CONDUIT      0.00     0  00:00      0.00    0.00    0.00
  CDT-65               CONDUIT      0.00     0  00:00      0.00    0.00    0.00
  CDT-67               CONDUIT      0.00     0  00:00      0.00    0.00    0.00
  CDT-69               CONDUIT      0.00     0  00:00      0.00    0.00    0.00
  CDT-71               CONDUIT      0.00     0  00:00      0.00    0.00    0.00
  CDT-73               CONDUIT      0.00     0  00:00      0.00    0.00    0.00
  CDT-75               CONDUIT      0.00     0  00:00      0.00    0.00    0.00
  CDT-77               CONDUIT      0.00     0  00:00      0.00    0.00    0.00
  CDT-79               CONDUIT      0.00     0  00:00      0.00    0.00    0.00
  CDT-81               CONDUIT      0.00     0  00:00      0.00    0.00    0.00
  CDT-83               CONDUIT      0.00     0  00:00      0.00    0.00    0.00
  CDT-85               CONDUIT      0.00     0  00:00      0.00    0.00    0.00
  CDT-87               CONDUIT      0.00     0  00:00      0.00    0.00    0.00
  CDT-89               CONDUIT      0.00     0  00:00      0.00    0.00    0.00
  CDT-91               CONDUIT      0.00     0  00:00      0.00    0.00    0.00
  CDT-93               CONDUIT      0.00     0  00:00      0.00    0.00    0.00
  CDT-95               CONDUIT      0.00     0  00:00      0.00    0.00    0.00
  CDT-97               CONDUIT      0.00     0  00:00      0.00    0.00    0.00
  CDT-99               CONDUIT      0.00     0  00:00      0.00    0.00    0.00
  R255                 CHANNEL      0.00     0  00:00      0.00    0.00    0.00
  R26                  CHANNEL      0.00     0  00:00      0.00    0.00    0.00
  R74                  CHANNEL      0.00     0  00:00      0.00    0.00    0.00
  R83                  CHANNEL      0.00     0  00:00      0.00    0.00    0.00
  RINFLOW              CHANNEL      0.00     0  00:00      0.00    0.00    0.00
  PUMP-13              PUMP         0.00     0  00:00              0.00
  PUMP-15              PUMP         0.00     0  00:00              0.00
  PUMP-17              PUMP         0.00     0  00:00              0.00
  PUMP-19              PUMP         0.00     0  00:00              0.00
  PUMP1@1115-351       PUMP         0.00     0  00:00              0.00
  ORI-11               ORIFICE      0.00     0  00:00                      0.00
  WEIR1@260-261        WEIR         0.00     0  00:00                      0.00
  OLET-11              DUMMY        0.00     0  00:00
  
  
  ***************************
  Flow Classification Summary
  ***************************
  
  -------------------------------------------------------------------------------------
                      Adjusted    ---------- Fraction of Time in Flow Class ---------- 
                       /Actual         Up    Down  Sub   Sup   Up    Down  Norm  Inlet 
  Conduit               Length    Dry  Dry   Dry   Crit  Crit  Crit  Crit  Ltd   Ctrl  
  -------------------------------------------------------------------------------------
  1001OF                  1.00   -nan(ind)  -nan(ind)  -nan(ind)  -nan(ind)  -nan(ind)  -nan(ind)  -nan(ind)  -nan(ind)  -nan(ind)
  105OF                   1.00   -nan(ind)  -nan(ind)  -nan(ind)  -nan(ind)  -nan(ind)  -nan(ind)  -nan(ind)  -nan(ind)  -nan(ind)
  1114                    4.05   -nan(ind)  -nan(ind)  -nan(ind)  -nan(ind)  -nan(ind)  -nan(ind)  -nan(ind)  -nan(ind)  -nan(ind)
  117                     2.68   -nan(ind)  -nan(ind)  -nan(ind)  -nan(ind)  -nan(ind)  -nan(ind)  -nan(ind)  -nan(ind)  -nan(ind)
  117OF                   1.00   -nan(ind)  -nan(ind)  -nan(ind)  -nan(ind)  -nan(ind)  -nan(ind)  -nan(ind)  -nan(ind)  -nan(ind)
  1209                    1.00   -nan(ind)  -nan(ind)  -nan(ind)  -nan(ind)  -nan(ind)  -nan(ind)  -nan(ind)  -nan(ind)  -nan(ind)
  1211                    1.00   -nan(ind)  -nan(ind)  -nan(ind)  -nan(ind)  -nan(ind)  -nan(ind)  -nan(ind)  -nan(ind)  -nan(ind)
  1225                    1.00   -nan(ind)  -nan(ind)  -nan(ind)  -nan(ind)  -nan(ind)  -nan(ind)  -nan(ind)  -nan(ind)  -nan(ind)
  1226                    1.33   -nan(ind)  -nan(ind)  -nan(ind)  -nan(ind)  -nan(ind)  -nan(ind)  -nan(ind)  -nan(ind)  -nan(ind)
  1228                    2.95   -nan(ind)  -nan(ind)  -nan(ind)  -nan(ind)  -nan(ind)  -nan(ind)  -nan(ind)  -nan(ind)  -nan(ind)
  1230                    1.00   -nan(ind)  -nan(ind)  -nan(ind)  -nan(ind)  -nan(ind)  -nan(ind)  -nan(ind)  -nan(ind)  -nan(ind)
  1249                    1.00   -nan(ind)  -nan(ind)  -nan(ind)  -nan(ind)  -nan(ind)  -nan(ind)  -nan(ind)  -nan(ind)  -nan(ind)
  1269                    1.00   -nan(ind)  -nan(ind)  -nan(ind)  -nan(ind)  -nan(ind)  -nan(ind)  -nan(ind)  -nan(ind)  -nan(ind)
  1270                    1.00   -nan(ind)  -nan(ind)  -nan(ind)  -nan(ind)  -nan(ind)  -nan(ind)  -nan(ind)  -nan(ind)  -nan(ind)
  1275                    1.00   -nan(ind)  -nan(ind)  -nan(ind)  -nan(ind)  -nan(ind)  -nan(ind)  -nan(ind)  -nan(ind)  -nan(ind)
  1276                    1.00   -nan(ind)  -nan(ind)  -nan(ind)  -nan(ind)  -nan(ind)  -nan(ind)  -nan(ind)  -nan(ind)  -nan(ind)
  1277                    1.00   -nan(ind)  -nan(ind)  -nan(ind)  -nan(ind)  -nan(ind)  -nan(ind)  -nan(ind)  -nan(ind)  -nan(ind)
  1281                    1.00   -nan(ind)  -nan(ind)  -nan(ind)  -nan(ind)  -nan(ind)  -nan(ind)  -nan(ind)  -nan(ind)  -nan(ind)
  1284                    1.00   -nan(ind)  -nan(ind)  -nan(ind)  -nan(ind)  -nan(ind)  -nan(ind)  -nan(ind)  -nan(ind)  -nan(ind)
  1285                    1.00   -nan(ind)  -nan(ind)  -nan(ind)  -nan(ind)  -nan(ind)  -nan(ind)  -nan(ind)  -nan(ind)  -nan(ind)
  1288                    1.00   -nan(ind)  -nan(ind)  -nan(ind)  -nan(ind)  -nan(ind)  -nan(ind)  -nan(ind)  -nan(ind)  -nan(ind)
  1289                    1.00   -nan(ind)  -nan(ind)  -nan(ind)  -nan(ind)  -nan(ind)  -nan(ind)  -nan(ind)  -nan(ind)  -nan(ind)
  1290                    1.00   -nan(ind)  -nan(ind)  -nan(ind)  -nan(ind)  -nan(ind)  -nan(ind)  -nan(ind)  -nan(ind)  -nan(ind)
  1291                    2.79   -nan(ind)  -nan(ind)  -nan(ind)  -nan(ind)  -nan(ind)  -nan(ind)  -nan(ind)  -nan(ind)  -nan(ind)
  1293                    1.00   -nan(ind)  -nan(ind)  -nan(ind)  -nan(ind)  -nan(ind)  -nan(ind)  -nan(ind)  -nan(ind)  -nan(ind)
  1294                    1.00   -nan(ind)  -nan(ind)  -nan(ind)  -nan(ind)  -nan(ind)  -nan(ind)  -nan(ind)  -nan(ind)  -nan(ind)
  1297                    1.00   -nan(ind)  -nan(ind)  -nan(ind)  -nan(ind)  -nan(ind)  -nan(ind)  -nan(ind)  -nan(ind)  -nan(ind)
  1298                    1.00   -nan(ind)  -nan(ind)  -nan(ind)  -nan(ind)  -nan(ind)  -nan(ind)  -nan(ind)  -nan(ind)  -nan(ind)
  1299                    1.00   -nan(ind)  -nan(ind)  -nan(ind)  -nan(ind)  -nan(ind)  -nan(ind)  -nan(ind)  -nan(ind)  -nan(ind)
  1300                    1.00   -nan(ind)  -nan(ind)  -nan(ind)  -nan(ind)  -nan(ind)  -nan(ind)  -nan(ind)  -nan(ind)  -nan(ind)
  1306                    1.00   -nan(ind)  -nan(ind)  -nan(ind)  -nan(ind)  -nan(ind)  -nan(ind)  -nan(ind)  -nan(ind)  -nan(ind)
  1307                    1.00   -nan(ind)  -nan(ind)  -nan(ind)  -nan(ind)  -nan(ind)  -nan(ind)  -nan(ind)  -nan(ind)  -nan(ind)
  1308                    1.00   -nan(ind)  -nan(ind)  -nan(ind)  -nan(ind)  -nan(ind)  -nan(ind)  -nan(ind)  -nan(ind)  -nan(ind)
  1312                    1.00   -nan(ind)  -nan(ind)  -nan(ind)  -nan(ind)  -nan(ind)  -nan(ind)  -nan(ind)  -nan(ind)  -nan(ind)
  1314                    1.06   -nan(ind)  -nan(ind)  -nan(ind)  -nan(ind)  -nan(ind)  -nan(ind)  -nan(ind)  -nan(ind)  -nan(ind)
  1315                    1.00   -nan(ind)  -nan(ind)  -nan(ind)  -nan(ind)  -nan(ind)  -nan(ind)  -nan(ind)  -nan(ind)  -nan(ind)
  1316                    1.00   -nan(ind)  -nan(ind)  -nan(ind)  -nan(ind)  -nan(ind)  -nan(ind)  -nan(ind)  -nan(ind)  -nan(ind)
  1317                    1.00   -nan(ind)  -nan(ind)  -nan(ind)  -nan(ind)  -nan(ind)  -nan(ind)  -nan(ind)  -nan(ind)  -nan(ind)
  1328                    1.00   -nan(ind)  -nan(ind)  -nan(ind)  -nan(ind)  -nan(ind)  -nan(ind)  -nan(ind)  -nan(ind)  -nan(ind)
  136OF                   1.00   -nan(ind)  -nan(ind)  -nan(ind)  -nan(ind)  -nan(ind)  -nan(ind)  -nan(ind)  -nan(ind)  -nan(ind)
  13OF                    1.00   -nan(ind)  -nan(ind)  -nan(ind)  -nan(ind)  -nan(ind)  -nan(ind)  -nan(ind)  -nan(ind)  -nan(ind)
  140OF                   1.00   -nan(ind)  -nan(ind)  -nan(ind)  -nan(ind)  -nan(ind)  -nan(ind)  -nan(ind)  -nan(ind)  -nan(ind)
  144                     1.00   -nan(ind)  -nan(ind)  -nan(ind)  -nan(ind)  -nan(ind)  -nan(ind)  -nan(ind)  -nan(ind)  -nan(ind)
  144OF                   2.00   -nan(ind)  -nan(ind)  -nan(ind)  -nan(ind)  -nan(ind)  -nan(ind)  -nan(ind)  -nan(ind)  -nan(ind)
  150OF                   1.00   -nan(ind)  -nan(ind)  -nan(ind)  -nan(ind)  -nan(ind)  -nan(ind)  -nan(ind)  -nan(ind)  -nan(ind)
  158                     1.68   -nan(ind)  -nan(ind)  -nan(ind)  -nan(ind)  -nan(ind)  -nan(ind)  -nan(ind)  -nan(ind)  -nan(ind)
  158OF                   1.37   -nan(ind)  -nan(ind)  -nan(ind)  -nan(ind)  -nan(ind)  -nan(ind)  -nan(ind)  -nan(ind)  -nan(ind)
  15OF                    2.32   -nan(ind)  -nan(ind)  -nan(ind)  -nan(ind)  -nan(ind)  -nan(ind)  -nan(ind)  -nan(ind)  -nan(ind)
  163OF                   1.96   -nan(ind)  -nan(ind)  -nan(ind)  -nan(ind)  -nan(ind)  -nan(ind)  -nan(ind)  -nan(ind)  -nan(ind)
  166OF                   1.00   -nan(ind)  -nan(ind)  -nan(ind)  -nan(ind)  -nan(ind)  -nan(ind)  -nan(ind)  -nan(ind)  -nan(ind)
  1791OF                  1.52   -nan(ind)  -nan(ind)  -nan(ind)  -nan(ind)  -nan(ind)  -nan(ind)  -nan(ind)  -nan(ind)  -nan(ind)
  179OF                   1.00   -nan(ind)  -nan(ind)  -nan(ind)  -nan(ind)  -nan(ind)  -nan(ind)  -nan(ind)  -nan(ind)  -nan(ind)
  17OF                    1.00   -nan(ind)  -nan(ind)  -nan(ind)  -nan(ind)  -nan(ind)  -nan(ind)  -nan(ind)  -nan(ind)  -nan(ind)
  183OF                   1.00   -nan(ind)  -nan(ind)  -nan(ind)  -nan(ind)  -nan(ind)  -nan(ind)  -nan(ind)  -nan(ind)  -nan(ind)
  187OF                   1.00   -nan(ind)  -nan(ind)  -nan(ind)  -nan(ind)  -nan(ind)  -nan(ind)  -nan(ind)  -nan(ind)  -nan(ind)
  18OF                    1.00   -nan(ind)  -nan(ind)  -nan(ind)  -nan(ind)  -nan(ind)  -nan(ind)  -nan(ind)  -nan(ind)  -nan(ind)
  191OF                   1.00   -nan(ind)  -nan(ind)  -nan(ind)  -nan(ind)  -nan(ind)  -nan(ind)  -nan(ind)  -nan(ind)  -nan(ind)
  19OF                    1.00   -nan(ind)  -nan(ind)  -nan(ind)  -nan(ind)  -nan(ind)  -nan(ind)  -nan(ind)  -nan(ind)  -nan(ind)
  200                     1.00   -nan(ind)  -nan(ind)  -nan(ind)  -nan(ind)  -nan(ind)  -nan(ind)  -nan(ind)  -nan(ind)  -nan(ind)
  200OF                   1.00   -nan(ind)  -nan(ind)  -nan(ind)  -nan(ind)  -nan(ind)  -nan(ind)  -nan(ind)  -nan(ind)  -nan(ind)
  201OF                   1.00   -nan(ind)  -nan(ind)  -nan(ind)  -nan(ind)  -nan(ind)  -nan(ind)  -nan(ind)  -nan(ind)  -nan(ind)
  205OF                   1.00   -nan(ind)  -nan(ind)  -nan(ind)  -nan(ind)  -nan(ind)  -nan(ind)  -nan(ind)  -nan(ind)  -nan(ind)
  209OFA                  1.00   -nan(ind)  -nan(ind)  -nan(ind)  -nan(ind)  -nan(ind)  -nan(ind)  -nan(ind)  -nan(ind)  -nan(ind)
  229OF                   1.00   -nan(ind)  -nan(ind)  -nan(ind)  -nan(ind)  -nan(ind)  -nan(ind)  -nan(ind)  -nan(ind)  -nan(ind)
  229OFB                  1.00   -nan(ind)  -nan(ind)  -nan(ind)  -nan(ind)  -nan(ind)  -nan(ind)  -nan(ind)  -nan(ind)  -nan(ind)
  232OF                   1.00   -nan(ind)  -nan(ind)  -nan(ind)  -nan(ind)  -nan(ind)  -nan(ind)  -nan(ind)  -nan(ind)  -nan(ind)
  244OF                   1.11   -nan(ind)  -nan(ind)  -nan(ind)  -nan(ind)  -nan(ind)  -nan(ind)  -nan(ind)  -nan(ind)  -nan(ind)
  257OF                   1.65   -nan(ind)  -nan(ind)  -nan(ind)  -nan(ind)  -nan(ind)  -nan(ind)  -nan(ind)  -nan(ind)  -nan(ind)
  25OF                    1.00   -nan(ind)  -nan(ind)  -nan(ind)  -nan(ind)  -nan(ind)  -nan(ind)  -nan(ind)  -nan(ind)  -nan(ind)
  2601OF                  1.00   -nan(ind)  -nan(ind)  -nan(ind)  -nan(ind)  -nan(ind)  -nan(ind)  -nan(ind)  -nan(ind)  -nan(ind)
  260OF                   1.00   -nan(ind)  -nan(ind)  -nan(ind)  -nan(ind)  -nan(ind)  -nan(ind)  -nan(ind)  -nan(ind)  -nan(ind)
  267OF                   1.00   -nan(ind)  -nan(ind)  -nan(ind)  -nan(ind)  -nan(ind)  -nan(ind)  -nan(ind)  -nan(ind)  -nan(ind)
  269OF                   1.00   -nan(ind)  -nan(ind)  -nan(ind)  -nan(ind)  -nan(ind)  -nan(ind)  -nan(ind)  -nan(ind)  -nan(ind)
  276OF                   1.00   -nan(ind)  -nan(ind)  -nan(ind)  -nan(ind)  -nan(ind)  -nan(ind)  -nan(ind)  -nan(ind)  -nan(ind)
  281OF                   1.00   -nan(ind)  -nan(ind)  -nan(ind)  -nan(ind)  -nan(ind)  -nan(ind)  -nan(ind)  -nan(ind)  -nan(ind)
  2851OF                  1.00   -nan(ind)  -nan(ind)  -nan(ind)  -nan(ind)  -nan(ind)  -nan(ind)  -nan(ind)  -nan(ind)  -nan(ind)
  285OF                   2.09   -nan(ind)  -nan(ind)  -nan(ind)  -nan(ind)  -nan(ind)  -nan(ind)  -nan(ind)  -nan(ind)  -nan(ind)
  297OF                   1.00   -nan(ind)  -nan(ind)  -nan(ind)  -nan(ind)  -nan(ind)  -nan(ind)  -nan(ind)  -nan(ind)  -nan(ind)
  306OF                   1.00   -nan(ind)  -nan(ind)  -nan(ind)  -nan(ind)  -nan(ind)  -nan(ind)  -nan(ind)  -nan(ind)  -nan(ind)
  3084                    1.53   -nan(ind)  -nan(ind)  -nan(ind)  -nan(ind)  -nan(ind)  -nan(ind)  -nan(ind)  -nan(ind)  -nan(ind)
  3091                   43.83   -nan(ind)  -nan(ind)  -nan(ind)  -nan(ind)  -nan(ind)  -nan(ind)  -nan(ind)  -nan(ind)  -nan(ind)
  31OF                    1.79   -nan(ind)  -nan(ind)  -nan(ind)  -nan(ind)  -nan(ind)  -nan(ind)  -nan(ind)  -nan(ind)  -nan(ind)
  3231OF                  1.00   -nan(ind)  -nan(ind)  -nan(ind)  -nan(ind)  -nan(ind)  -nan(ind)  -nan(ind)  -nan(ind)  -nan(ind)
  323OF                   1.00   -nan(ind)  -nan(ind)  -nan(ind)  -nan(ind)  -nan(ind)  -nan(ind)  -nan(ind)  -nan(ind)  -nan(ind)
  325OF                   2.56   -nan(ind)  -nan(ind)  -nan(ind)  -nan(ind)  -nan(ind)  -nan(ind)  -nan(ind)  -nan(ind)  -nan(ind)
  3289                    1.00   -nan(ind)  -nan(ind)  -nan(ind)  -nan(ind)  -nan(ind)  -nan(ind)  -nan(ind)  -nan(ind)  -nan(ind)
  3293                    3.60   -nan(ind)  -nan(ind)  -nan(ind)  -nan(ind)  -nan(ind)  -nan(ind)  -nan(ind)  -nan(ind)  -nan(ind)
  32OF                    1.04   -nan(ind)  -nan(ind)  -nan(ind)  -nan(ind)  -nan(ind)  -nan(ind)  -nan(ind)  -nan(ind)  -nan(ind)
  3339                    1.00   -nan(ind)  -nan(ind)  -nan(ind)  -nan(ind)  -nan(ind)  -nan(ind)  -nan(ind)  -nan(ind)  -nan(ind)
  3349                    1.81   -nan(ind)  -nan(ind)  -nan(ind)  -nan(ind)  -nan(ind)  -nan(ind)  -nan(ind)  -nan(ind)  -nan(ind)
  3355                    1.00   -nan(ind)  -nan(ind)  -nan(ind)  -nan(ind)  -nan(ind)  -nan(ind)  -nan(ind)  -nan(ind)  -nan(ind)
  3423                    1.00   -nan(ind)  -nan(ind)  -nan(ind)  -nan(ind)  -nan(ind)  -nan(ind)  -nan(ind)  -nan(ind)  -nan(ind)
  3424                    1.00   -nan(ind)  -nan(ind)  -nan(ind)  -nan(ind)  -nan(ind)  -nan(ind)  -nan(ind)  -nan(ind)  -nan(ind)
  348OF                  20.27   -nan(ind)  -nan(ind)  -nan(ind)  -nan(ind)  -nan(ind)  -nan(ind)  -nan(ind)  -nan(ind)  -nan(ind)
  3493                    1.00   -nan(ind)  -nan(ind)  -nan(ind)  -nan(ind)  -nan(ind)  -nan(ind)  -nan(ind)  -nan(ind)  -nan(ind)
  3510                    1.00   -nan(ind)  -nan(ind)  -nan(ind)  -nan(ind)  -nan(ind)  -nan(ind)  -nan(ind)  -nan(ind)  -nan(ind)
  3511                    1.00   -nan(ind)  -nan(ind)  -nan(ind)  -nan(ind)  -nan(ind)  -nan(ind)  -nan(ind)  -nan(ind)  -nan(ind)
  351OF                   7.29   -nan(ind)  -nan(ind)  -nan(ind)  -nan(ind)  -nan(ind)  -nan(ind)  -nan(ind)  -nan(ind)  -nan(ind)
  3521                    1.00   -nan(ind)  -nan(ind)  -nan(ind)  -nan(ind)  -nan(ind)  -nan(ind)  -nan(ind)  -nan(ind)  -nan(ind)
  3527                    1.00   -nan(ind)  -nan(ind)  -nan(ind)  -nan(ind)  -nan(ind)  -nan(ind)  -nan(ind)  -nan(ind)  -nan(ind)
  3629                    1.00   -nan(ind)  -nan(ind)  -nan(ind)  -nan(ind)  -nan(ind)  -nan(ind)  -nan(ind)  -nan(ind)  -nan(ind)
  3656                    1.00   -nan(ind)  -nan(ind)  -nan(ind)  -nan(ind)  -nan(ind)  -nan(ind)  -nan(ind)  -nan(ind)  -nan(ind)
  3682                    1.00   -nan(ind)  -nan(ind)  -nan(ind)  -nan(ind)  -nan(ind)  -nan(ind)  -nan(ind)  -nan(ind)  -nan(ind)
  3690                    1.00   -nan(ind)  -nan(ind)  -nan(ind)  -nan(ind)  -nan(ind)  -nan(ind)  -nan(ind)  -nan(ind)  -nan(ind)
  371OF                   1.47   -nan(ind)  -nan(ind)  -nan(ind)  -nan(ind)  -nan(ind)  -nan(ind)  -nan(ind)  -nan(ind)  -nan(ind)
  3843                    1.00   -nan(ind)  -nan(ind)  -nan(ind)  -nan(ind)  -nan(ind)  -nan(ind)  -nan(ind)  -nan(ind)  -nan(ind)
  384OF                   1.12   -nan(ind)  -nan(ind)  -nan(ind)  -nan(ind)  -nan(ind)  -nan(ind)  -nan(ind)  -nan(ind)  -nan(ind)
  3860                    6.38   -nan(ind)  -nan(ind)  -nan(ind)  -nan(ind)  -nan(ind)  -nan(ind)  -nan(ind)  -nan(ind)  -nan(ind)
  3873                    1.00   -nan(ind)  -nan(ind)  -nan(ind)  -nan(ind)  -nan(ind)  -nan(ind)  -nan(ind)  -nan(ind)  -nan(ind)
  387OF                   1.71   -nan(ind)  -nan(ind)  -nan(ind)  -nan(ind)  -nan(ind)  -nan(ind)  -nan(ind)  -nan(ind)  -nan(ind)
  4030                    1.86   -nan(ind)  -nan(ind)  -nan(ind)  -nan(ind)  -nan(ind)  -nan(ind)  -nan(ind)  -nan(ind)  -nan(ind)
  4043                    1.00   -nan(ind)  -nan(ind)  -nan(ind)  -nan(ind)  -nan(ind)  -nan(ind)  -nan(ind)  -nan(ind)  -nan(ind)
  407OF                   1.00   -nan(ind)  -nan(ind)  -nan(ind)  -nan(ind)  -nan(ind)  -nan(ind)  -nan(ind)  -nan(ind)  -nan(ind)
  4103                    1.00   -nan(ind)  -nan(ind)  -nan(ind)  -nan(ind)  -nan(ind)  -nan(ind)  -nan(ind)  -nan(ind)  -nan(ind)
  4117                    1.00   -nan(ind)  -nan(ind)  -nan(ind)  -nan(ind)  -nan(ind)  -nan(ind)  -nan(ind)  -nan(ind)  -nan(ind)
  4130                    1.10   -nan(ind)  -nan(ind)  -nan(ind)  -nan(ind)  -nan(ind)  -nan(ind)  -nan(ind)  -nan(ind)  -nan(ind)
  4155                    1.00   -nan(ind)  -nan(ind)  -nan(ind)  -nan(ind)  -nan(ind)  -nan(ind)  -nan(ind)  -nan(ind)  -nan(ind)
  4195                    4.35   -nan(ind)  -nan(ind)  -nan(ind)  -nan(ind)  -nan(ind)  -nan(ind)  -nan(ind)  -nan(ind)  -nan(ind)
  4202                    1.00   -nan(ind)  -nan(ind)  -nan(ind)  -nan(ind)  -nan(ind)  -nan(ind)  -nan(ind)  -nan(ind)  -nan(ind)
  4203                    1.10   -nan(ind)  -nan(ind)  -nan(ind)  -nan(ind)  -nan(ind)  -nan(ind)  -nan(ind)  -nan(ind)  -nan(ind)
  421OF                   1.00   -nan(ind)  -nan(ind)  -nan(ind)  -nan(ind)  -nan(ind)  -nan(ind)  -nan(ind)  -nan(ind)  -nan(ind)
  4220                    2.37   -nan(ind)  -nan(ind)  -nan(ind)  -nan(ind)  -nan(ind)  -nan(ind)  -nan(ind)  -nan(ind)  -nan(ind)
  4232                    2.06   -nan(ind)  -nan(ind)  -nan(ind)  -nan(ind)  -nan(ind)  -nan(ind)  -nan(ind)  -nan(ind)  -nan(ind)
  4OF                     1.00   -nan(ind)  -nan(ind)  -nan(ind)  -nan(ind)  -nan(ind)  -nan(ind)  -nan(ind)  -nan(ind)  -nan(ind)
  5002                    1.00   -nan(ind)  -nan(ind)  -nan(ind)  -nan(ind)  -nan(ind)  -nan(ind)  -nan(ind)  -nan(ind)  -nan(ind)
  5003                    1.00   -nan(ind)  -nan(ind)  -nan(ind)  -nan(ind)  -nan(ind)  -nan(ind)  -nan(ind)  -nan(ind)  -nan(ind)
  77OF                    2.66   -nan(ind)  -nan(ind)  -nan(ind)  -nan(ind)  -nan(ind)  -nan(ind)  -nan(ind)  -nan(ind)  -nan(ind)
  7OF                     1.00   -nan(ind)  -nan(ind)  -nan(ind)  -nan(ind)  -nan(ind)  -nan(ind)  -nan(ind)  -nan(ind)  -nan(ind)
  879OF                   1.00   -nan(ind)  -nan(ind)  -nan(ind)  -nan(ind)  -nan(ind)  -nan(ind)  -nan(ind)  -nan(ind)  -nan(ind)
  882OF                   1.00   -nan(ind)  -nan(ind)  -nan(ind)  -nan(ind)  -nan(ind)  -nan(ind)  -nan(ind)  -nan(ind)  -nan(ind)
  893OF                   1.00   -nan(ind)  -nan(ind)  -nan(ind)  -nan(ind)  -nan(ind)  -nan(ind)  -nan(ind)  -nan(ind)  -nan(ind)
  8941OF                  1.00   -nan(ind)  -nan(ind)  -nan(ind)  -nan(ind)  -nan(ind)  -nan(ind)  -nan(ind)  -nan(ind)  -nan(ind)
  894OF                   3.05   -nan(ind)  -nan(ind)  -nan(ind)  -nan(ind)  -nan(ind)  -nan(ind)  -nan(ind)  -nan(ind)  -nan(ind)
  9561OF                  1.00   -nan(ind)  -nan(ind)  -nan(ind)  -nan(ind)  -nan(ind)  -nan(ind)  -nan(ind)  -nan(ind)  -nan(ind)
  9562OF                  1.00   -nan(ind)  -nan(ind)  -nan(ind)  -nan(ind)  -nan(ind)  -nan(ind)  -nan(ind)  -nan(ind)  -nan(ind)
  956OF                   1.00   -nan(ind)  -nan(ind)  -nan(ind)  -nan(ind)  -nan(ind)  -nan(ind)  -nan(ind)  -nan(ind)  -nan(ind)
  95OF                    1.00   -nan(ind)  -nan(ind)  -nan(ind)  -nan(ind)  -nan(ind)  -nan(ind)  -nan(ind)  -nan(ind)  -nan(ind)
  974OF                   1.00   -nan(ind)  -nan(ind)  -nan(ind)  -nan(ind)  -nan(ind)  -nan(ind)  -nan(ind)  -nan(ind)  -nan(ind)
  982OF                   1.00   -nan(ind)  -nan(ind)  -nan(ind)  -nan(ind)  -nan(ind)  -nan(ind)  -nan(ind)  -nan(ind)  -nan(ind)
  989OF                   1.04   -nan(ind)  -nan(ind)  -nan(ind)  -nan(ind)  -nan(ind)  -nan(ind)  -nan(ind)  -nan(ind)  -nan(ind)
  CDT-101                 1.00   -nan(ind)  -nan(ind)  -nan(ind)  -nan(ind)  -nan(ind)  -nan(ind)  -nan(ind)  -nan(ind)  -nan(ind)
  CDT-103                 1.00   -nan(ind)  -nan(ind)  -nan(ind)  -nan(ind)  -nan(ind)  -nan(ind)  -nan(ind)  -nan(ind)  -nan(ind)
  CDT-105                 1.00   -nan(ind)  -nan(ind)  -nan(ind)  -nan(ind)  -nan(ind)  -nan(ind)  -nan(ind)  -nan(ind)  -nan(ind)
  CDT-107                 1.00   -nan(ind)  -nan(ind)  -nan(ind)  -nan(ind)  -nan(ind)  -nan(ind)  -nan(ind)  -nan(ind)  -nan(ind)
  CDT-109                 1.00   -nan(ind)  -nan(ind)  -nan(ind)  -nan(ind)  -nan(ind)  -nan(ind)  -nan(ind)  -nan(ind)  -nan(ind)
  CDT-11                  1.00   -nan(ind)  -nan(ind)  -nan(ind)  -nan(ind)  -nan(ind)  -nan(ind)  -nan(ind)  -nan(ind)  -nan(ind)
  CDT-111                 1.00   -nan(ind)  -nan(ind)  -nan(ind)  -nan(ind)  -nan(ind)  -nan(ind)  -nan(ind)  -nan(ind)  -nan(ind)
  CDT-113                 1.00   -nan(ind)  -nan(ind)  -nan(ind)  -nan(ind)  -nan(ind)  -nan(ind)  -nan(ind)  -nan(ind)  -nan(ind)
  CDT-115                 1.00   -nan(ind)  -nan(ind)  -nan(ind)  -nan(ind)  -nan(ind)  -nan(ind)  -nan(ind)  -nan(ind)  -nan(ind)
  CDT-117                 1.00   -nan(ind)  -nan(ind)  -nan(ind)  -nan(ind)  -nan(ind)  -nan(ind)  -nan(ind)  -nan(ind)  -nan(ind)
  CDT-119                 1.00   -nan(ind)  -nan(ind)  -nan(ind)  -nan(ind)  -nan(ind)  -nan(ind)  -nan(ind)  -nan(ind)  -nan(ind)
  CDT-121                 1.00   -nan(ind)  -nan(ind)  -nan(ind)  -nan(ind)  -nan(ind)  -nan(ind)  -nan(ind)  -nan(ind)  -nan(ind)
  CDT-123                 1.00   -nan(ind)  -nan(ind)  -nan(ind)  -nan(ind)  -nan(ind)  -nan(ind)  -nan(ind)  -nan(ind)  -nan(ind)
  CDT-125                 1.00   -nan(ind)  -nan(ind)  -nan(ind)  -nan(ind)  -nan(ind)  -nan(ind)  -nan(ind)  -nan(ind)  -nan(ind)
  CDT-127                 1.00   -nan(ind)  -nan(ind)  -nan(ind)  -nan(ind)  -nan(ind)  -nan(ind)  -nan(ind)  -nan(ind)  -nan(ind)
  CDT-129                 1.00   -nan(ind)  -nan(ind)  -nan(ind)  -nan(ind)  -nan(ind)  -nan(ind)  -nan(ind)  -nan(ind)  -nan(ind)
  CDT-13                  1.00   -nan(ind)  -nan(ind)  -nan(ind)  -nan(ind)  -nan(ind)  -nan(ind)  -nan(ind)  -nan(ind)  -nan(ind)
  CDT-131                 1.00   -nan(ind)  -nan(ind)  -nan(ind)  -nan(ind)  -nan(ind)  -nan(ind)  -nan(ind)  -nan(ind)  -nan(ind)
  CDT-133                 1.00   -nan(ind)  -nan(ind)  -nan(ind)  -nan(ind)  -nan(ind)  -nan(ind)  -nan(ind)  -nan(ind)  -nan(ind)
  CDT-135                 1.00   -nan(ind)  -nan(ind)  -nan(ind)  -nan(ind)  -nan(ind)  -nan(ind)  -nan(ind)  -nan(ind)  -nan(ind)
  CDT-137                 1.00   -nan(ind)  -nan(ind)  -nan(ind)  -nan(ind)  -nan(ind)  -nan(ind)  -nan(ind)  -nan(ind)  -nan(ind)
  CDT-141                 1.00   -nan(ind)  -nan(ind)  -nan(ind)  -nan(ind)  -nan(ind)  -nan(ind)  -nan(ind)  -nan(ind)  -nan(ind)
  CDT-143                 1.00   -nan(ind)  -nan(ind)  -nan(ind)  -nan(ind)  -nan(ind)  -nan(ind)  -nan(ind)  -nan(ind)  -nan(ind)
  CDT-147                 1.00   -nan(ind)  -nan(ind)  -nan(ind)  -nan(ind)  -nan(ind)  -nan(ind)  -nan(ind)  -nan(ind)  -nan(ind)
  CDT-149                 1.00   -nan(ind)  -nan(ind)  -nan(ind)  -nan(ind)  -nan(ind)  -nan(ind)  -nan(ind)  -nan(ind)  -nan(ind)
  CDT-15                  1.00   -nan(ind)  -nan(ind)  -nan(ind)  -nan(ind)  -nan(ind)  -nan(ind)  -nan(ind)  -nan(ind)  -nan(ind)
  CDT-151                 1.00   -nan(ind)  -nan(ind)  -nan(ind)  -nan(ind)  -nan(ind)  -nan(ind)  -nan(ind)  -nan(ind)  -nan(ind)
  CDT-153                 1.00   -nan(ind)  -nan(ind)  -nan(ind)  -nan(ind)  -nan(ind)  -nan(ind)  -nan(ind)  -nan(ind)  -nan(ind)
  CDT-155                 1.00   -nan(ind)  -nan(ind)  -nan(ind)  -nan(ind)  -nan(ind)  -nan(ind)  -nan(ind)  -nan(ind)  -nan(ind)
  CDT-157                 1.00   -nan(ind)  -nan(ind)  -nan(ind)  -nan(ind)  -nan(ind)  -nan(ind)  -nan(ind)  -nan(ind)  -nan(ind)
  CDT-159                 1.00   -nan(ind)  -nan(ind)  -nan(ind)  -nan(ind)  -nan(ind)  -nan(ind)  -nan(ind)  -nan(ind)  -nan(ind)
  CDT-161                 1.89   -nan(ind)  -nan(ind)  -nan(ind)  -nan(ind)  -nan(ind)  -nan(ind)  -nan(ind)  -nan(ind)  -nan(ind)
  CDT-163                 1.00   -nan(ind)  -nan(ind)  -nan(ind)  -nan(ind)  -nan(ind)  -nan(ind)  -nan(ind)  -nan(ind)  -nan(ind)
  CDT-165                 1.00   -nan(ind)  -nan(ind)  -nan(ind)  -nan(ind)  -nan(ind)  -nan(ind)  -nan(ind)  -nan(ind)  -nan(ind)
  CDT-167                 1.00   -nan(ind)  -nan(ind)  -nan(ind)  -nan(ind)  -nan(ind)  -nan(ind)  -nan(ind)  -nan(ind)  -nan(ind)
  CDT-169                 1.00   -nan(ind)  -nan(ind)  -nan(ind)  -nan(ind)  -nan(ind)  -nan(ind)  -nan(ind)  -nan(ind)  -nan(ind)
  CDT-17                  1.00   -nan(ind)  -nan(ind)  -nan(ind)  -nan(ind)  -nan(ind)  -nan(ind)  -nan(ind)  -nan(ind)  -nan(ind)
  CDT-171                 1.00   -nan(ind)  -nan(ind)  -nan(ind)  -nan(ind)  -nan(ind)  -nan(ind)  -nan(ind)  -nan(ind)  -nan(ind)
  CDT-175                 1.00   -nan(ind)  -nan(ind)  -nan(ind)  -nan(ind)  -nan(ind)  -nan(ind)  -nan(ind)  -nan(ind)  -nan(ind)
  CDT-19                  1.00   -nan(ind)  -nan(ind)  -nan(ind)  -nan(ind)  -nan(ind)  -nan(ind)  -nan(ind)  -nan(ind)  -nan(ind)
  CDT-21                  1.00   -nan(ind)  -nan(ind)  -nan(ind)  -nan(ind)  -nan(ind)  -nan(ind)  -nan(ind)  -nan(ind)  -nan(ind)
  CDT-23                  1.00   -nan(ind)  -nan(ind)  -nan(ind)  -nan(ind)  -nan(ind)  -nan(ind)  -nan(ind)  -nan(ind)  -nan(ind)
  CDT-25                  1.00   -nan(ind)  -nan(ind)  -nan(ind)  -nan(ind)  -nan(ind)  -nan(ind)  -nan(ind)  -nan(ind)  -nan(ind)
  CDT-27                  1.00   -nan(ind)  -nan(ind)  -nan(ind)  -nan(ind)  -nan(ind)  -nan(ind)  -nan(ind)  -nan(ind)  -nan(ind)
  CDT-29                  1.00   -nan(ind)  -nan(ind)  -nan(ind)  -nan(ind)  -nan(ind)  -nan(ind)  -nan(ind)  -nan(ind)  -nan(ind)
  CDT-31                  1.00   -nan(ind)  -nan(ind)  -nan(ind)  -nan(ind)  -nan(ind)  -nan(ind)  -nan(ind)  -nan(ind)  -nan(ind)
  CDT-33                  1.00   -nan(ind)  -nan(ind)  -nan(ind)  -nan(ind)  -nan(ind)  -nan(ind)  -nan(ind)  -nan(ind)  -nan(ind)
  CDT-35                  1.00   -nan(ind)  -nan(ind)  -nan(ind)  -nan(ind)  -nan(ind)  -nan(ind)  -nan(ind)  -nan(ind)  -nan(ind)
  CDT-37                  1.00   -nan(ind)  -nan(ind)  -nan(ind)  -nan(ind)  -nan(ind)  -nan(ind)  -nan(ind)  -nan(ind)  -nan(ind)
  CDT-39                  1.00   -nan(ind)  -nan(ind)  -nan(ind)  -nan(ind)  -nan(ind)  -nan(ind)  -nan(ind)  -nan(ind)  -nan(ind)
  CDT-41                  1.00   -nan(ind)  -nan(ind)  -nan(ind)  -nan(ind)  -nan(ind)  -nan(ind)  -nan(ind)  -nan(ind)  -nan(ind)
  CDT-43                  1.00   -nan(ind)  -nan(ind)  -nan(ind)  -nan(ind)  -nan(ind)  -nan(ind)  -nan(ind)  -nan(ind)  -nan(ind)
  CDT-45                  1.00   -nan(ind)  -nan(ind)  -nan(ind)  -nan(ind)  -nan(ind)  -nan(ind)  -nan(ind)  -nan(ind)  -nan(ind)
  CDT-47                  1.00   -nan(ind)  -nan(ind)  -nan(ind)  -nan(ind)  -nan(ind)  -nan(ind)  -nan(ind)  -nan(ind)  -nan(ind)
  CDT-49                  1.00   -nan(ind)  -nan(ind)  -nan(ind)  -nan(ind)  -nan(ind)  -nan(ind)  -nan(ind)  -nan(ind)  -nan(ind)
  CDT-51                  1.00   -nan(ind)  -nan(ind)  -nan(ind)  -nan(ind)  -nan(ind)  -nan(ind)  -nan(ind)  -nan(ind)  -nan(ind)
  CDT-53                  1.00   -nan(ind)  -nan(ind)  -nan(ind)  -nan(ind)  -nan(ind)  -nan(ind)  -nan(ind)  -nan(ind)  -nan(ind)
  CDT-55                  1.00   -nan(ind)  -nan(ind)  -nan(ind)  -nan(ind)  -nan(ind)  -nan(ind)  -nan(ind)  -nan(ind)  -nan(ind)
  CDT-57                  1.00   -nan(ind)  -nan(ind)  -nan(ind)  -nan(ind)  -nan(ind)  -nan(ind)  -nan(ind)  -nan(ind)  -nan(ind)
  CDT-59                  1.00   -nan(ind)  -nan(ind)  -nan(ind)  -nan(ind)  -nan(ind)  -nan(ind)  -nan(ind)  -nan(ind)  -nan(ind)
  CDT-61                  1.00   -nan(ind)  -nan(ind)  -nan(ind)  -nan(ind)  -nan(ind)  -nan(ind)  -nan(ind)  -nan(ind)  -nan(ind)
  CDT-63                  1.00   -nan(ind)  -nan(ind)  -nan(ind)  -nan(ind)  -nan(ind)  -nan(ind)  -nan(ind)  -nan(ind)  -nan(ind)
  CDT-65                  1.00   -nan(ind)  -nan(ind)  -nan(ind)  -nan(ind)  -nan(ind)  -nan(ind)  -nan(ind)  -nan(ind)  -nan(ind)
  CDT-67                  1.00   -nan(ind)  -nan(ind)  -nan(ind)  -nan(ind)  -nan(ind)  -nan(ind)  -nan(ind)  -nan(ind)  -nan(ind)
  CDT-69                  1.00   -nan(ind)  -nan(ind)  -nan(ind)  -nan(ind)  -nan(ind)  -nan(ind)  -nan(ind)  -nan(ind)  -nan(ind)
  CDT-71                  1.00   -nan(ind)  -nan(ind)  -nan(ind)  -nan(ind)  -nan(ind)  -nan(ind)  -nan(ind)  -nan(ind)  -nan(ind)
  CDT-73                  1.00   -nan(ind)  -nan(ind)  -nan(ind)  -nan(ind)  -nan(ind)  -nan(ind)  -nan(ind)  -nan(ind)  -nan(ind)
  CDT-75                  1.00   -nan(ind)  -nan(ind)  -nan(ind)  -nan(ind)  -nan(ind)  -nan(ind)  -nan(ind)  -nan(ind)  -nan(ind)
  CDT-77                  1.00   -nan(ind)  -nan(ind)  -nan(ind)  -nan(ind)  -nan(ind)  -nan(ind)  -nan(ind)  -nan(ind)  -nan(ind)
  CDT-79                  1.00   -nan(ind)  -nan(ind)  -nan(ind)  -nan(ind)  -nan(ind)  -nan(ind)  -nan(ind)  -nan(ind)  -nan(ind)
  CDT-81                  1.00   -nan(ind)  -nan(ind)  -nan(ind)  -nan(ind)  -nan(ind)  -nan(ind)  -nan(ind)  -nan(ind)  -nan(ind)
  CDT-83                  1.00   -nan(ind)  -nan(ind)  -nan(ind)  -nan(ind)  -nan(ind)  -nan(ind)  -nan(ind)  -nan(ind)  -nan(ind)
  CDT-85                  1.00   -nan(ind)  -nan(ind)  -nan(ind)  -nan(ind)  -nan(ind)  -nan(ind)  -nan(ind)  -nan(ind)  -nan(ind)
  CDT-87                  1.00   -nan(ind)  -nan(ind)  -nan(ind)  -nan(ind)  -nan(ind)  -nan(ind)  -nan(ind)  -nan(ind)  -nan(ind)
  CDT-89                  1.00   -nan(ind)  -nan(ind)  -nan(ind)  -nan(ind)  -nan(ind)  -nan(ind)  -nan(ind)  -nan(ind)  -nan(ind)
  CDT-91                  1.00   -nan(ind)  -nan(ind)  -nan(ind)  -nan(ind)  -nan(ind)  -nan(ind)  -nan(ind)  -nan(ind)  -nan(ind)
  CDT-93                  1.00   -nan(ind)  -nan(ind)  -nan(ind)  -nan(ind)  -nan(ind)  -nan(ind)  -nan(ind)  -nan(ind)  -nan(ind)
  CDT-95                  1.00   -nan(ind)  -nan(ind)  -nan(ind)  -nan(ind)  -nan(ind)  -nan(ind)  -nan(ind)  -nan(ind)  -nan(ind)
  CDT-97                  1.00   -nan(ind)  -nan(ind)  -nan(ind)  -nan(ind)  -nan(ind)  -nan(ind)  -nan(ind)  -nan(ind)  -nan(ind)
  CDT-99                  1.00   -nan(ind)  -nan(ind)  -nan(ind)  -nan(ind)  -nan(ind)  -nan(ind)  -nan(ind)  -nan(ind)  -nan(ind)
  R255                    2.35   -nan(ind)  -nan(ind)  -nan(ind)  -nan(ind)  -nan(ind)  -nan(ind)  -nan(ind)  -nan(ind)  -nan(ind)
  R26                     1.00   -nan(ind)  -nan(ind)  -nan(ind)  -nan(ind)  -nan(ind)  -nan(ind)  -nan(ind)  -nan(ind)  -nan(ind)
  R74                     1.49   -nan(ind)  -nan(ind)  -nan(ind)  -nan(ind)  -nan(ind)  -nan(ind)  -nan(ind)  -nan(ind)  -nan(ind)
  R83                     1.00   -nan(ind)  -nan(ind)  -nan(ind)  -nan(ind)  -nan(ind)  -nan(ind)  -nan(ind)  -nan(ind)  -nan(ind)
  RINFLOW                 1.00   -nan(ind)  -nan(ind)  -nan(ind)  -nan(ind)  -nan(ind)  -nan(ind)  -nan(ind)  -nan(ind)  -nan(ind)
  
  
  *************************
  Conduit Surcharge Summary
  *************************
  
  No conduits were surcharged.
  
  
  ***************
  Pumping Summary
  ***************
  
  ---------------------------------------------------------------------------------------------------------
                                                  Min       Avg       Max     Total     Power    % Time Off
                        Percent   Number of      Flow      Flow      Flow    Volume     Usage    Pump Curve
  Pump                 Utilized   Start-Ups       CFS       CFS       CFS  10^6 gal     Kw-hr    Low   High
  ---------------------------------------------------------------------------------------------------------
  PUMP-13              -nan(ind)           0      0.00      0.00      0.00     0.000      0.00    0.0    0.0
  PUMP-15              -nan(ind)           0      0.00      0.00      0.00     0.000      0.00    0.0    0.0
  PUMP-17              -nan(ind)           0      0.00      0.00      0.00     0.000      0.00    0.0    0.0
  PUMP-19              -nan(ind)           0      0.00      0.00      0.00     0.000      0.00    0.0    0.0
  PUMP1@1115-351       -nan(ind)           0      0.00      0.00      0.00     0.000      0.00    0.0    0.0
  

  Analysis begun on:  Sat Nov 30 08:11:40 2019
  Analysis ended on:  Sat Nov 30 08:11:40 2019
  Total elapsed time: < 1 sec