
  EPA STORM WATER MANAGEMENT MODEL - VERSION 5.1 (Build 5.1.013)
  --------------------------------------------------------------

  Scenario Run :  BASE 
   FIGURE C1 
  
  WARNING 02: maximum depth increased for Node NODE72
  
  *************
  Element Count
  *************
  Number of rain gages ...... 1
  Number of subcatchments ... 48
  Number of nodes ........... 100
  Number of links ........... 148
  Number of pollutants ...... 0
  Number of land uses ....... 0
  
  
  ****************
  Raingage Summary
  ****************
                                                      Data       Recording
  Name                 Data Source                    Type       Interval 
  ------------------------------------------------------------------------
  BISMARCK_SCS_II_6HR  BISMARCK_SCS_II_6HR_100YR      CUMULATIVE   3 min.
  
  
  ********************
  Subcatchment Summary
  ********************
  Name                       Area     Width   %Imperv    %Slope Rain Gage            Outlet              
  -----------------------------------------------------------------------------------------------------------
  3_4_A                     29.24    500.00      0.00    0.5000 BISMARCK_SCS_II_6HR  DEFACTO_PRIVATE_DR_S_OF_79TH
  3_4_B                     26.30    500.00      0.00    0.5000 BISMARCK_SCS_II_6HR  3-4C2               
  3_4_C                     11.19    500.00      0.00    0.5000 BISMARCK_SCS_II_6HR  DEFACTO_N_OF_79TH_E_OF_PRIVDR
  3_4_D                     26.56    500.00      0.00    0.5000 BISMARCK_SCS_II_6HR  DET_BASIN_NRE_W_RIDGELAND_N
  3_4_E                     13.00    500.00      0.00    0.5000 BISMARCK_SCS_II_6HR  DET_BASIN_NRE_W_NWOOD_N
  3_4_F                     35.82    500.00      0.00    0.5000 BISMARCK_SCS_II_6HR  DET_BASIN_NRE_E_PROP_LINE
  3_4_G                     14.96    500.00      0.00    0.5000 BISMARCK_SCS_II_6HR  DEFACTO_SW_84TH_RIDGELAND
  3_4_H                     11.39    500.00      0.00    0.5000 BISMARCK_SCS_II_6HR  DEFACTO_PRIVATE_DR_N_OF_79TH_1
  3_4_I                     45.34    500.00      0.00    0.5000 BISMARCK_SCS_II_6HR  JCT-42              
  3_4_J                     26.38    500.00      0.00    0.5000 BISMARCK_SCS_II_6HR  DEFACTO_W_OF_USH83_NE_OF_79TH
  3_4_K                     29.70    500.00      0.00    0.5000 BISMARCK_SCS_II_6HR  DEFACTO_N_OF_SNFLWR_W_OF_CRWAY
  3_4_L                     18.96    500.00      0.00    0.5000 BISMARCK_SCS_II_6HR  CRWAY_N_OF_84TH     
  3_4_M                     34.24    500.00      0.00    0.5000 BISMARCK_SCS_II_6HR  DEFACTO_NE_84TH_RIDGELAND
  3_4_N                     15.73    500.00      0.00    0.5000 BISMARCK_SCS_II_6HR  DEFACTO_NE_SNFLWR_SAGE
  3_4_O                    158.64    500.00      0.00    0.5000 BISMARCK_SCS_II_6HR  DEFACTO_USH83_UPPER 
  3_4_P                     40.40    500.00      0.00    0.5000 BISMARCK_SCS_II_6HR  DEFACTO_USH83_N_OF_1804
  3_4_Q                     24.41    500.00      0.00    0.5000 BISMARCK_SCS_II_6HR  DEFACTO_11TH        
  3_4_R                     12.18    500.00      0.00    0.5000 BISMARCK_SCS_II_6HR  DEFACTO_W_OF_USH83_N_OF_11TH
  3_4_S                      5.04    500.00      0.00    0.5000 BISMARCK_SCS_II_6HR  DEFACTO_NW_84TH_RIDGELAND
  3_4_T                      7.88    500.00      0.00    0.5000 BISMARCK_SCS_II_6HR  DET_BASIN_NRE_N_PARKSIDE
  3_4_U                     34.77    500.00      0.00    0.5000 BISMARCK_SCS_II_6HR  DEFACTO_84TH_FENNEL 
  3_4_V                     17.63    500.00      0.00    0.5000 BISMARCK_SCS_II_6HR  DEFACTO_E_OF_FENNEL_N_OF_84TH
  3_4_W                      3.07    500.00      0.00    0.5000 BISMARCK_SCS_II_6HR  DEFACTO_N_OF_SNFLWR_W_OF_SAGE
  3_4_X                     21.06    500.00      0.00    0.5000 BISMARCK_SCS_II_6HR  JCT-42              
  3_4_Y                      7.75    500.00      0.00    0.5000 BISMARCK_SCS_II_6HR  DEFACTO_79TH_PRIVETE_DR
  3_5_A                     84.60    500.00      0.00    0.5000 BISMARCK_SCS_II_6HR  DEFACTO_1804_W_OF_USH83
  3_5_B                     33.78    500.00      0.00    0.5000 BISMARCK_SCS_II_6HR  DET_BASIN_NRE_W_RIDGELAND_S
  3_5_C                     15.96    500.00      0.00    0.5000 BISMARCK_SCS_II_6HR  DET_BASIN_NRE_W_NWOOD_S
  3_5_D                     32.35    500.00      0.00    0.5000 BISMARCK_SCS_II_6HR  DET_BASIN_NRE_W_NWOOD_CENT
  3_5_E                     14.97    500.00      0.00    0.5000 BISMARCK_SCS_II_6HR  DET_BASIN_NRE_INLINE
  3_5_F                     41.72    500.00      0.00    0.5000 BISMARCK_SCS_II_6HR  DET_BASIN_NRE_W_RIDGELAND_S
  3_5_G                     85.39    500.00      0.00    0.5000 BISMARCK_SCS_II_6HR  JCT-68              
  3_5_H                     90.08    500.00      0.00    0.5000 BISMARCK_SCS_II_6HR  DET_BASIN_NRE_W_NWOOD_CENT
  3_5_I                     75.20    500.00      0.00    0.5000 BISMARCK_SCS_II_6HR  DET_BASIN_NRE_W_NWOOD_CENT
  3_5_J                     11.17    500.00      0.00    0.5000 BISMARCK_SCS_II_6HR  DEFACTO_W_OF_WASH_N_OF_RDGLND_LP
  3_5_K                      4.69    500.00      0.00    0.5000 BISMARCK_SCS_II_6HR  DEFACTO_S_OF_RDGLND_LP_E_OF_WASH
  3_6_A                     92.15    500.00      0.00    0.5000 BISMARCK_SCS_II_6HR  DEFACTO_W_OF_WASH_S_OF_1804
  3_6_B                     38.88    500.00      0.00    0.5000 BISMARCK_SCS_II_6HR  1804_W_OF_WASH      
  3_6_C                    150.31    500.00      0.00    0.5000 BISMARCK_SCS_II_6HR  NODE71.2.1          
  3_6_D                     45.49    500.00      0.00    0.5000 BISMARCK_SCS_II_6HR  NODE72              
  3_6_E                      8.69    500.00      0.00    0.5000 BISMARCK_SCS_II_6HR  DEFACTO_E_OF_WASH_N_OF_1804
  3_6_F                     59.59    500.00      0.00    0.5000 BISMARCK_SCS_II_6HR  NODE76.2            
  3_6_G                    118.22    500.00      0.00    0.5000 BISMARCK_SCS_II_6HR  NODE76.1.1          
  3_6_H                     46.29    500.00      0.00    0.5000 BISMARCK_SCS_II_6HR  NODE70.2            
  3_6_I                     85.41    500.00      0.00    0.5000 BISMARCK_SCS_II_6HR  NODE70.1.1          
  3_6_J                     74.08    500.00      0.00    0.5000 BISMARCK_SCS_II_6HR  NODE71.1.1          
  OUTSIDE_A                 35.91    500.00      0.00    0.5000 BISMARCK_SCS_II_6HR  JCT-138             
  OUTSIDE_B                 14.48    500.00      0.00    0.5000 BISMARCK_SCS_II_6HR  JCT-138             
  
  
  ************
  Node Summary
  ************
                                           Invert      Max.    Ponded    External
  Name                 Type                 Elev.     Depth      Area    Inflow  
  -------------------------------------------------------------------------------
  1804_W_OF_WASH       JUNCTION           1887.05     30.00       0.0
  3-4C2                JUNCTION           1843.48     30.00       0.0
  CRWAY_N_OF_84TH      JUNCTION           1900.58     30.00       0.0
  DRIVEWAY_N_OF_79TH_1 JUNCTION           1861.11     30.00       0.0
  DRIVEWAY_WESTERN_S_OF_79TH JUNCTION           1859.40     30.00       0.0
  JCT-102              JUNCTION           1886.72     30.00       0.0
  JCT-104              JUNCTION           1884.74     30.00       0.0
  JCT-106              JUNCTION           1902.88     30.00       0.0
  JCT-108              JUNCTION           1903.95     30.00       0.0
  JCT-110              JUNCTION           1898.94     30.00       0.0
  JCT-116              JUNCTION           1860.70     30.00       0.0
  JCT-118              JUNCTION           1859.10     30.00       0.0
  JCT-120              JUNCTION           1862.90     30.00       0.0
  JCT-122              JUNCTION           1907.12     30.00       0.0
  JCT-124              JUNCTION           1907.36     30.00       0.0
  JCT-126              JUNCTION           1912.57     30.00       0.0
  JCT-128              JUNCTION           1900.04     30.00       0.0
  JCT-130              JUNCTION           1882.18     30.00       0.0
  JCT-132              JUNCTION           1861.45     30.00       0.0
  JCT-134              JUNCTION           1850.09     30.00       0.0
  JCT-136              JUNCTION           1844.10     30.00       0.0
  JCT-138              JUNCTION           1788.42     30.00       0.0
  JCT-140              JUNCTION           1792.23     30.00       0.0
  JCT-142              JUNCTION           1796.11     30.00       0.0
  JCT-144              JUNCTION           1797.54     30.00       0.0
  JCT-146              JUNCTION           1804.85     30.00       0.0
  JCT-148              JUNCTION           1839.81     30.00       0.0
  JCT-24               JUNCTION           1879.85     30.00       0.0
  JCT-28               JUNCTION           1873.43     30.00       0.0
  JCT-34               JUNCTION           1902.01     30.00       0.0
  JCT-38               JUNCTION           1885.07     30.00       0.0
  JCT-40               JUNCTION           1882.97     30.00       0.0
  JCT-42               JUNCTION           1869.10     30.00       0.0
  JCT-46               JUNCTION           1886.97     30.00       0.0
  JCT-50               JUNCTION           1886.78     30.00       0.0
  JCT-56               JUNCTION           1858.43     30.00       0.0
  JCT-60               JUNCTION           1861.82     30.00       0.0
  JCT-64               JUNCTION           1860.85     30.00       0.0
  JCT-68               JUNCTION           1843.34     30.00       0.0
  JCT-72               JUNCTION           1876.88     30.00       0.0
  JCT-80               JUNCTION           1857.30     30.00       0.0
  NODE1071             JUNCTION           1801.56     30.00       0.0
  NODE62               JUNCTION           1880.16     30.00       0.0
  NODE64               JUNCTION           1858.96     30.00       0.0
  NODE68               JUNCTION           1832.29     30.00       0.0
  NODE70               JUNCTION           1829.24     30.00       0.0
  NODE70.1             JUNCTION           1820.00     30.00       0.0
  NODE70.1.1           JUNCTION           1815.11     30.00       0.0
  NODE70.2             JUNCTION           1826.49     30.00       0.0
  NODE71               JUNCTION           1812.25     30.00       0.0
  NODE71.1             JUNCTION           1805.82     30.00       0.0
  NODE71.1.1           JUNCTION           1802.98     30.00       0.0
  NODE71.1.2           JUNCTION           1805.32     30.00       0.0
  NODE71.2             JUNCTION           1809.27     30.00       0.0
  NODE71.2.1           JUNCTION           1807.56     30.00       0.0
  NODE71.3             JUNCTION           1809.94     30.00       0.0
  NODE72               JUNCTION           1798.68     39.62       0.0
  NODE73               JUNCTION           1797.82     30.00       0.0
  NODE73.1             JUNCTION           1792.90     30.00       0.0
  NODE76               JUNCTION           1866.27     30.00       0.0
  NODE76.1             JUNCTION           1839.34     30.00       0.0
  NODE76.1.1           JUNCTION           1825.84     30.00       0.0
  NODE76.2             JUNCTION           1852.85     30.00       0.0
  NODE79               JUNCTION           1873.58     30.00       0.0
  NODE80               JUNCTION           1865.87     30.00       0.0
  NODE82               JUNCTION           1856.28     30.00       0.0
  NODE85               JUNCTION           1850.38     30.00       0.0
  NODE74               OUTFALL            1786.84     21.44       0.0
  DEFACTO_11TH         STORAGE            1851.80     30.00       0.0
  DEFACTO_1804_W_OF_USH83 STORAGE            1829.72     30.00       0.0
  DEFACTO_79TH_PRIVETE_DR STORAGE            1859.80     30.00       0.0
  DEFACTO_84TH_FENNEL  STORAGE            1880.75     30.00       0.0
  DEFACTO_E_OF_FENNEL_N_OF_84TH STORAGE            1882.55     30.00       0.0
  DEFACTO_E_OF_WASH_N_OF_1804 STORAGE            1887.50     30.00       0.0
  DEFACTO_NE_84TH_RIDGELAND STORAGE            1883.02     30.00       0.0
  DEFACTO_NE_SNFLWR_SAGE STORAGE            1908.54     30.00       0.0
  DEFACTO_NW_84TH_RIDGELAND STORAGE            1887.60     30.00       0.0
  DEFACTO_N_OF_79TH_E_OF_PRIVDR STORAGE            1863.44     30.00       0.0
  DEFACTO_N_OF_SNFLWR_W_OF_CRWAY STORAGE            1913.08     30.00       0.0
  DEFACTO_N_OF_SNFLWR_W_OF_SAGE STORAGE            1907.62     30.00       0.0
  DEFACTO_PRIVATE_DR_N_OF_79TH_1 STORAGE            1861.20     30.00       0.0
  DEFACTO_PRIVATE_DR_N_OF_79TH_2 STORAGE            1861.67     30.00       0.0
  DEFACTO_PRIVATE_DR_S_OF_79TH STORAGE            1858.31     30.00       0.0
  DEFACTO_SW_84TH_RIDGELAND STORAGE            1887.90     30.00       0.0
  DEFACTO_S_OF_RDGLND_LP_E_OF_WASH STORAGE            1905.39     30.00       0.0
  DEFACTO_USH83_N_OF_1804 STORAGE            1832.77     30.00       0.0
  DEFACTO_USH83_UPPER  STORAGE            1834.00     30.00       0.0
  DEFACTO_W_OF_DRIV_ON_RDGLND_LP STORAGE            1900.12     30.00       0.0
  DEFACTO_W_OF_USH83_NE_OF_79TH STORAGE            1863.41     30.00       0.0
  DEFACTO_W_OF_USH83_N_OF_11TH STORAGE            1852.02     30.00       0.0
  DEFACTO_W_OF_WASH_N_OF_RDGLND_LP STORAGE            1904.65     30.00       0.0
  DEFACTO_W_OF_WASH_S_OF_1804 STORAGE            1866.59     30.00       0.0
  DET_BASIN_NRE_E_PROP_LINE STORAGE            1873.73     30.00       0.0
  DET_BASIN_NRE_INLINE STORAGE            1866.41     30.00       0.0
  DET_BASIN_NRE_N_PARKSIDE STORAGE            1880.04     30.00       0.0
  DET_BASIN_NRE_W_NWOOD_CENT STORAGE            1874.22     30.00       0.0
  DET_BASIN_NRE_W_NWOOD_N STORAGE            1902.23     30.00       0.0
  DET_BASIN_NRE_W_NWOOD_S STORAGE            1877.89     30.00       0.0
  DET_BASIN_NRE_W_RIDGELAND_N STORAGE            1885.49     30.00       0.0
  DET_BASIN_NRE_W_RIDGELAND_S STORAGE            1857.27     30.00       0.0
  
  
  ************
  Link Summary
  ************
  Name             From Node        To Node          Type            Length    %Slope Roughness
  ---------------------------------------------------------------------------------------------
  11TH_CULV        DEFACTO_11TH     NODE85           CONDUIT           67.0    2.1199    0.0240
  11TH_CULV2       DEFACTO_11TH     NODE85           CONDUIT           67.0    2.0452    0.0240
  11TH_CULV3       DEFACTO_11TH     NODE85           CONDUIT           67.0    1.7615    0.0240
  1804_W_USH83_CULV DEFACTO_1804_W_OF_USH83 NODE70           CONDUIT          125.0    0.6080    0.0140
  1804_W_USH83_CULV2 DEFACTO_1804_W_OF_USH83 NODE70           CONDUIT          133.0    0.1353    0.0140
  1804_W_USH83_CULV3 DEFACTO_1804_W_OF_USH83 NODE70           CONDUIT          135.0    0.0444    0.0140
  1804_W_USH83_CULV4 DEFACTO_1804_W_OF_USH83 NODE70           CONDUIT          141.0    0.6809    0.0140
  1804_W_WASH_CULV 1804_W_OF_WASH   JCT-104          CONDUIT           58.0    3.9859    0.0140
  79TH_E_PRIVATE_DR_CULV DEFACTO_N_OF_79TH_E_OF_PRIVDR JCT-120          CONDUIT           37.0    1.4596    0.0140
  79TH_NEAR_PRIV_DR_CULV DEFACTO_79TH_PRIVETE_DR NODE64           CONDUIT           30.0    2.8011    0.0240
  79TH_NEAR_PRIV_DR_CULV2 DEFACTO_79TH_PRIVETE_DR NODE64           CONDUIT           30.0    1.6002    0.0240
  79TH_NEAR_PRIV_DR_CULV3 DEFACTO_79TH_PRIVETE_DR NODE64           CONDUIT           32.0    1.7815    0.0240
  79TH_W_DRIVEWAYS_CULV DEFACTO_PRIVATE_DR_N_OF_79TH_1 JCT-116          CONDUIT           40.0    1.2501    0.0140
  84TH_E_RIDGELAND_CULV DEFACTO_NE_84TH_RIDGELAND JCT-40           CONDUIT           60.0    0.0833    0.0240
  84TH_W_FENNEL_CULV DEFACTO_84TH_FENNEL NODE62           CONDUIT           60.0    0.9834    0.0240
  CDT-101          JCT-122          DEFACTO_NE_84TH_RIDGELAND CONDUIT         1745.0    1.3812    0.0500
  CDT-103          JCT-134          JCT-136          CONDUIT          193.0    3.1051    0.0500
  CDT-105          JCT-132          JCT-136          CONDUIT         1371.0    1.2656    0.0500
  CDT-107          JCT-102          1804_W_OF_WASH   CONDUIT          535.0   -0.0617    0.0500
  CDT-109          JCT-104          DEFACTO_W_OF_WASH_S_OF_1804 CONDUIT          950.0    1.9109    0.0500
  CDT-111          JCT-120          JCT-80           CONDUIT          477.0    1.1741    0.0500
  CDT-113          JCT-116          DRIVEWAY_WESTERN_S_OF_79TH CONDUIT          255.0    0.5098    0.0500
  CDT-115          JCT-118          NODE64           CONDUIT           32.0    0.4375    0.0500
  CDT-117          JCT-138          NODE74           CONDUIT          234.0    0.6752    0.0500
  CDT-119          JCT-140          JCT-138          CONDUIT          325.0    1.1724    0.0500
  CDT-121          JCT-142          NODE73.1         CONDUIT          237.0    1.3546    0.0500
  CDT-123          JCT-144          JCT-142          CONDUIT          251.0    0.5697    0.0500
  CDT-125          JCT-146          NODE71.1.1       CONDUIT          238.0    0.7857    0.0500
  CDT-127          JCT-148          DEFACTO_1804_W_OF_USH83 CONDUIT         1238.0    0.8151    0.0500
  CDT-129          JCT-106          DEFACTO_W_OF_DRIV_ON_RDGLND_LP CONDUIT          131.0    2.1073    0.0500
  CDT-131          JCT-108          DEFACTO_W_OF_DRIV_ON_RDGLND_LP CONDUIT          125.0    3.0654    0.0500
  CDT-133          JCT-110          DET_BASIN_NRE_W_NWOOD_S CONDUIT          890.0    2.3658    0.0500
  CDT-135          JCT-136          DEFACTO_USH83_UPPER CONDUIT         1135.0    0.8899    0.0500
  CDT-201          DEFACTO_PRIVATE_DR_N_OF_79TH_1 DRIVEWAY_N_OF_79TH_1 CONDUIT          390.0    0.0231    0.0500
  CDT-23           JCT-24           DET_BASIN_NRE_E_PROP_LINE CONDUIT          580.0    1.0552    0.0500
  CDT-27           JCT-28           JCT-42           CONDUIT          410.0    1.0562    0.0500
  CDT-31           JCT-34           DET_BASIN_NRE_W_RIDGELAND_N CONDUIT         1083.0    1.5256    0.0500
  CDT-35           JCT-38           DET_BASIN_NRE_E_PROP_LINE CONDUIT          850.0    1.3342    0.0500
  CDT-37           JCT-40           DET_BASIN_NRE_N_PARKSIDE CONDUIT          600.0    0.4883    0.0500
  CDT-39           JCT-42           DEFACTO_PRIVATE_DR_N_OF_79TH_2 CONDUIT          877.0    0.8472    0.0500
  CDT-43           JCT-46           JCT-40           CONDUIT          410.0    0.9757    0.0500
  CDT-47           JCT-50           DEFACTO_NE_84TH_RIDGELAND CONDUIT          200.0    1.8803    0.0500
  CDT-51           JCT-56           JCT-80           CONDUIT          800.0    0.1413    0.0500
  CDT-55           JCT-60           DEFACTO_PRIVATE_DR_N_OF_79TH_1 CONDUIT          390.0    0.1590    0.0500
  CDT-59           JCT-64           DEFACTO_79TH_PRIVETE_DR CONDUIT          150.0    0.7000    0.0500
  CDT-61           JCT-68           JCT-148          CONDUIT          657.0    0.5373    0.0500
  CDT-65           JCT-72           DET_BASIN_NRE_INLINE CONDUIT          390.0    2.6856    0.0500
  CDT-71           JCT-80           DEFACTO_11TH     CONDUIT          800.0    0.6875    0.0500
  CDT-93           JCT-128          DEFACTO_E_OF_FENNEL_N_OF_84TH CONDUIT          777.0    2.2515    0.0500
  CDT-95           JCT-130          DEFACTO_84TH_FENNEL CONDUIT           81.0    1.7657    0.0500
  CDT-97           JCT-126          DEFACTO_84TH_FENNEL CONDUIT         1729.0    1.8407    0.0500
  CDT-99           JCT-124          JCT-122          CONDUIT           30.0    0.8000    0.0500
  CRWAY_N_84TH_CULV CRWAY_N_OF_84TH  JCT-128          CONDUIT           60.0    0.9000    0.0240
  DRIVE_ON_RDGLND_LP_CULV DEFACTO_W_OF_DRIV_ON_RDGLND_LP JCT-110          CONDUIT           48.0    2.4591    0.0240
  E_PROP_LINE_NRE_DETBASIN_CULV DET_BASIN_NRE_E_PROP_LINE JCT-28           CONDUIT           40.0    0.8250    0.0240
  E_PROP_LINE_NRE_DETBASIN_CULV2 DET_BASIN_NRE_E_PROP_LINE JCT-28           CONDUIT           41.0    0.4390    0.0240
  FENNEL_N_84TH_CULV DEFACTO_E_OF_FENNEL_N_OF_84TH JCT-130          CONDUIT           50.0    0.7400    0.0240
  INLINE_NRE_DETBASIN_CULV DET_BASIN_NRE_INLINE NODE80           CONDUIT           80.0    0.6750    0.0240
  INLINE_NRE_DETBASIN_CULV2 DET_BASIN_NRE_INLINE NODE80           CONDUIT           80.0    0.4500    0.0240
  LINK1063         NODE1071         NODE72           CONDUIT          405.0    0.7111    0.0500
  LINK54           NODE62           JCT-42           CONDUIT          900.0    1.2290    0.0500
  LINK56           NODE64           DEFACTO_PRIVATE_DR_S_OF_79TH CONDUIT          450.0    0.1444    0.0500
  LINK60           NODE68           DEFACTO_1804_W_OF_USH83 CONDUIT          559.0    0.4598    0.0500
  LINK62           NODE70           NODE70.2         CONDUIT          927.0    0.2967    0.0500
  LINK62.1         NODE70.1         NODE70.1.1       CONDUIT          856.0    0.5713    0.0500
  LINK62.1.1       NODE70.1.1       NODE71           CONDUIT          846.0    0.3381    0.0500
  LINK62.2         NODE70.2         NODE70.1         CONDUIT          879.0    0.7384    0.0500
  LINK63           NODE71           NODE71.3         CONDUIT          375.0    0.6160    0.0500
  LINK63.1         NODE71.1         NODE71.1.2       CONDUIT          221.0    0.2262    0.0500
  LINK63.1.1       NODE71.1.1       NODE1071         CONDUIT          330.0    0.4303    0.0500
  LINK63.1.2       NODE71.1.2       JCT-146          CONDUIT          330.0    0.1424    0.0500
  LINK63.2         NODE71.2         NODE71.2.1       CONDUIT          294.0    0.5816    0.0500
  LINK63.2.1       NODE71.2.1       NODE71.1         CONDUIT          330.0    0.5273    0.0500
  LINK63.3         NODE71.3         NODE71.2         CONDUIT          286.0    0.2343    0.0500
  LINK65           NODE73           JCT-144          CONDUIT          194.0    0.1443    0.0500
  LINK65.1         NODE73.1         JCT-140          CONDUIT          100.0    0.6700    0.0500
  LINK67           NODE76           NODE76.2         CONDUIT          860.0    1.5607    0.0500
  LINK67.1         NODE76.1         NODE76.1.1       CONDUIT         1086.0    1.2432    0.0500
  LINK67.1.1       NODE76.1.1       NODE71           CONDUIT         1113.0    1.2211    0.0500
  LINK67.2         NODE76.2         NODE76.1         CONDUIT          975.0    1.3858    0.0500
  LINK70           NODE79           DET_BASIN_NRE_INLINE CONDUIT          670.0    1.0702    0.1000
  LINK71           NODE80           DET_BASIN_NRE_W_RIDGELAND_S CONDUIT          950.0    0.9053    0.1000
  LINK73           NODE82           JCT-68           CONDUIT         1749.0    0.7399    0.0500
  LINK76           3-4C2            NODE68           CONDUIT         1296.0    0.8635    0.0500
  LINK78           NODE85           3-4C2            CONDUIT         1120.0    0.6161    0.0500
  NORTHWOOD_CENT_NRE_DETBASIN_CULV DET_BASIN_NRE_W_NWOOD_CENT NODE79           CONDUIT           82.0    0.7805    0.0240
  NORTHWOOD_CEN_NRE_DETBASIN_CULV2 DET_BASIN_NRE_W_NWOOD_CENT NODE79           CONDUIT           82.0    0.6707    0.0240
  NORTHWOOD_S_NRE_DETBASIN_CULV DET_BASIN_NRE_W_NWOOD_S JCT-72           CONDUIT           68.0    1.4855    0.0240
  NWOOD_N_NRE_DETBASIN_CULV DET_BASIN_NRE_W_NWOOD_N JCT-34           CONDUIT           50.0    0.4400    0.0240
  PARKSIDE_NRE_DETBASIN_CULV DET_BASIN_NRE_N_PARKSIDE JCT-24           CONDUIT           71.0    0.2676    0.0240
  PARKSIDE_NRE_DETBASIN_CULV2 DET_BASIN_NRE_N_PARKSIDE JCT-24           CONDUIT           71.0    0.5634    0.0240
  PRIVATE_DRIVE_S_79TH_CULV DEFACTO_PRIVATE_DR_S_OF_79TH JCT-56           CONDUIT           22.0   -0.5455    0.0140
  PRIVATE_DR_N_79TH_1_CULV DRIVEWAY_N_OF_79TH_1 JCT-64           CONDUIT           30.0    0.8667    0.0240
  PRIVATE_DR_N_OF_79TH_2_CULV DEFACTO_PRIVATE_DR_N_OF_79TH_2 JCT-60           CONDUIT           18.0   -0.8334    0.0140
  PRIVATE_DR_N_OF_79TH_2_CULV2 DEFACTO_PRIVATE_DR_N_OF_79TH_2 JCT-60           CONDUIT           20.0    1.3001    0.0140
  PRIVATE_DR_S_79TH_2_CULV DRIVEWAY_WESTERN_S_OF_79TH JCT-118          CONDUIT           22.0    1.3638    0.0240
  RDGLND_LP_E_WASH_CULV DEFACTO_S_OF_RDGLND_LP_E_OF_WASH JCT-108          CONDUIT           69.0    2.0874    0.0240
  RIDGELAND_N_84TH_CULV DEFACTO_NW_84TH_RIDGELAND JCT-50           CONDUIT           50.0    1.6402    0.0240
  RIDGELAND_N_NRE_DETBASIN_CULV DET_BASIN_NRE_W_RIDGELAND_N JCT-38           CONDUIT           51.0    0.8236    0.0240
  RIDGELAND_S_84TH_CULV DEFACTO_SW_84TH_RIDGELAND JCT-46           CONDUIT           51.0    1.8238    0.0240
  RIDGELAND_S_NRE_DETBASIN_CULV DET_BASIN_NRE_W_RIDGELAND_S NODE82           CONDUIT           80.0    1.1126    0.0240
  RIDGELAND_S_NRE_DETBASIN_CULV2 DET_BASIN_NRE_W_RIDGELAND_S NODE82           CONDUIT           80.0    1.3126    0.0240
  SNFLWR_SAGE_CULV DEFACTO_NE_SNFLWR_SAGE JCT-124          CONDUIT           81.0    1.4569    0.0240
  SNFLWR_W_CRWAY_CULV DEFACTO_N_OF_SNFLWR_W_OF_CRWAY JCT-126          CONDUIT           52.0    0.9808    0.0240
  SNFLWR_W_SAGE_CULV DEFACTO_N_OF_SNFLWR_W_OF_SAGE JCT-122          CONDUIT           41.0    1.2196    0.0240
  USH83_MAIN_CULV  NODE72           NODE73           CONDUIT          320.0    0.2688    0.0240
  USH83_NE_79TH_CULV DEFACTO_W_OF_USH83_NE_OF_79TH JCT-132          CONDUIT          192.0    1.0209    0.0140
  USH83_N_11TH_CULV DEFACTO_W_OF_USH83_N_OF_11TH JCT-134          CONDUIT          218.0    0.8854    0.0140
  USH83_N_1804_CULV DEFACTO_USH83_N_OF_1804 NODE68           CONDUIT          230.0    0.2087    0.0140
  WAH_N_RDGLND_LP_CULV DEFACTO_W_OF_WASH_N_OF_RDGLND_LP JCT-106          CONDUIT           81.0    2.1857    0.0240
  WASH_N_1804_CULV DEFACTO_E_OF_WASH_N_OF_1804 JCT-102          CONDUIT          113.0    0.6903    0.0240
  WASH_S_1804_CULV DEFACTO_W_OF_WASH_S_OF_1804 NODE76           CONDUIT           56.0    0.5714    0.0140
  11TH_OVER        DEFACTO_11TH     NODE85           WEIR        
  1804_W_OF_USH83_OVER DEFACTO_1804_W_OF_USH83 NODE70           WEIR        
  1804_W_OF_WASH_OVER 1804_W_OF_WASH   JCT-104          WEIR        
  79TH_E_OF_PRIVATE_DR_OVER DEFACTO_N_OF_79TH_E_OF_PRIVDR JCT-120          WEIR        
  79TH_NEAR_PRIV_DR_OVER DEFACTO_79TH_PRIVETE_DR NODE64           WEIR        
  79TH_W_DRIVEWAYS_OVER DEFACTO_PRIVATE_DR_N_OF_79TH_1 JCT-116          WEIR        
  84TH_E_OF_RIDGELAND_OVER DEFACTO_NE_84TH_RIDGELAND JCT-40           WEIR        
  84TH_W_OF_FENNEL_OVER DEFACTO_84TH_FENNEL NODE62           WEIR        
  CRWAY_N_OF_84TH_OVER CRWAY_N_OF_84TH  JCT-128          WEIR        
  DRIVE_ON_RDGLND_LP_OVER DEFACTO_W_OF_DRIV_ON_RDGLND_LP JCT-110          WEIR        
  E_PROP_LINE_NRE_DETBASIN_OVER DET_BASIN_NRE_E_PROP_LINE JCT-28           WEIR        
  FENNEL_N_OF_84TH_OVER DEFACTO_E_OF_FENNEL_N_OF_84TH JCT-130          WEIR        
  INLINE_NRE_DETBASIN_OVER DET_BASIN_NRE_INLINE NODE80           WEIR        
  NORTHWOOD_CENT_NRE_DETBASIN_OVER DET_BASIN_NRE_W_NWOOD_CENT NODE79           WEIR        
  NORTHWOOD_N_DETBASIN_OVER DET_BASIN_NRE_W_NWOOD_N JCT-34           WEIR        
  NORTHWOOD_S_NRE_DETBASIN_OVER DET_BASIN_NRE_W_NWOOD_S JCT-72           WEIR        
  PARKSIDE_NRE_DETBASIN_OVER DET_BASIN_NRE_N_PARKSIDE JCT-24           WEIR        
  PRIVATE_DRIVE_S_OF_79TH_OVER DEFACTO_PRIVATE_DR_S_OF_79TH JCT-56           WEIR        
  PRIVATE_DR_N_OF_79TH_1_OVER DRIVEWAY_N_OF_79TH_1 JCT-64           WEIR        
  PRIVATE_DR_N_OF_79TH_2_OVER DEFACTO_PRIVATE_DR_N_OF_79TH_2 JCT-60           WEIR        
  PRIVATE_DR_S_79TH_2_OVER DRIVEWAY_WESTERN_S_OF_79TH JCT-118          WEIR        
  RDGLND_LP_E_OF_WASH_OVER DEFACTO_S_OF_RDGLND_LP_E_OF_WASH JCT-110          WEIR        
  RIDGELAND_N_NRE_DETBASIN_OVER DET_BASIN_NRE_W_RIDGELAND_N JCT-38           WEIR        
  RIDGELAND_N_OF_84TH_OVER DEFACTO_NW_84TH_RIDGELAND JCT-50           WEIR        
  RIDGELAND_S_NRE_DETBASIN_OVER DET_BASIN_NRE_W_RIDGELAND_S NODE82           WEIR        
  RIDGELAND_S_OF_84TH_OVER DEFACTO_SW_84TH_RIDGELAND JCT-46           WEIR        
  SNFLWR_SAGE_OVER DEFACTO_NE_SNFLWR_SAGE JCT-124          WEIR        
  SNFLWR_W_OF_CRWAY_OVER DEFACTO_N_OF_SNFLWR_W_OF_CRWAY JCT-126          WEIR        
  SNFLWR_W_OF_SAGE_OVER DEFACTO_N_OF_SNFLWR_W_OF_SAGE JCT-122          WEIR        
  USH83_MAIN_OVER  NODE72           NODE73           WEIR        
  USH83_N_OF_11TH_OVER DEFACTO_W_OF_USH83_N_OF_11TH 3-4C2            WEIR        
  USH83_UPPER_OVER DEFACTO_USH83_UPPER DEFACTO_USH83_N_OF_1804 WEIR        
  USH_NE_OF_79TH_OVER DEFACTO_W_OF_USH83_NE_OF_79TH DEFACTO_W_OF_USH83_N_OF_11TH WEIR        
  WASH_N_OF_1804_OVER DEFACTO_E_OF_WASH_N_OF_1804 JCT-102          WEIR        
  WASH_N_OF_RDGLND_LP_OVER DEFACTO_W_OF_WASH_N_OF_RDGLND_LP JCT-106          WEIR        
  WASH_S_OF_1804_OVER DEFACTO_W_OF_WASH_S_OF_1804 NODE76           WEIR        
  
  
  *********************
  Cross Section Summary
  *********************
                                        Full     Full     Hyd.     Max.   No. of     Full
  Conduit          Shape               Depth     Area     Rad.    Width  Barrels     Flow
  ---------------------------------------------------------------------------------------
  11TH_CULV        CIRCULAR             4.00    12.57     1.00     4.00        1   113.29
  11TH_CULV2       CIRCULAR             4.00    12.57     1.00     4.00        1   111.27
  11TH_CULV3       CIRCULAR             4.00    12.57     1.00     4.00        1   103.27
  1804_W_USH83_CULV ARCH                 3.00    11.23     0.90     4.75        1    86.45
  1804_W_USH83_CULV2 ARCH                 3.00    11.23     0.90     4.75        1    40.79
  1804_W_USH83_CULV3 ARCH                 3.00    11.23     0.90     4.75        1    23.37
  1804_W_USH83_CULV4 ARCH                 3.00    11.23     0.90     4.75        1    91.48
  1804_W_WASH_CULV CIRCULAR             3.00     7.07     0.75     3.00        1   123.65
  79TH_E_PRIVATE_DR_CULV CIRCULAR             1.50     1.77     0.38     1.50        1    11.78
  79TH_NEAR_PRIV_DR_CULV CIRCULAR             2.00     3.14     0.50     2.00        1    20.51
  79TH_NEAR_PRIV_DR_CULV2 CIRCULAR             2.00     3.14     0.50     2.00        1    15.50
  79TH_NEAR_PRIV_DR_CULV3 CIRCULAR             1.25     1.23     0.31     1.25        1     4.67
  79TH_W_DRIVEWAYS_CULV CIRCULAR             2.00     3.14     0.50     2.00        1    23.49
  84TH_E_RIDGELAND_CULV CIRCULAR             3.00     7.07     0.75     3.00        1    10.43
  84TH_W_FENNEL_CULV CIRCULAR             2.50     4.91     0.63     2.50        1    22.03
  CDT-101          TRAPEZOIDAL         10.00   440.00     5.09    84.00        1  4546.92
  CDT-103          TRAPEZOIDAL         10.00  1100.00     5.21   210.00        1 17320.39
  CDT-105          TRAPEZOIDAL         10.00  1100.00     5.21   210.00        1 11057.75
  CDT-107          TRAPEZOIDAL         10.00  1100.00     5.21   210.00        1  2441.17
  CDT-109          TRAPEZOIDAL         10.00  1100.00     5.21   210.00        1 13587.34
  CDT-111          TRAPEZOIDAL         10.00  1100.00     5.21   210.00        1 10650.46
  CDT-113          TRAPEZOIDAL         10.00  1100.00     5.21   210.00        1  7018.15
  CDT-115          TRAPEZOIDAL         10.00  1100.00     5.21   210.00        1  6501.44
  CDT-117          235.84              21.44  3989.94    11.76   331.15        1 50378.34
  CDT-119          594.8249            22.46  3959.95    14.18   266.00        1 74638.50
  CDT-121          794.468             21.72  4133.69    13.70   283.17        1 81877.29
  CDT-123          1047.309            10.67  1730.87     5.10   336.32        1 11505.44
  CDT-125          2586.361            18.63  8979.54     7.10  1257.25        1 87421.62
  CDT-127          TRAPEZOIDAL         10.00  1500.00     5.98   250.00        1 13254.00
  CDT-129          TRAPEZOIDAL         10.00   440.00     5.09    84.00        1  5616.34
  CDT-131          TRAPEZOIDAL         10.00   440.00     5.09    84.00        1  6773.80
  CDT-133          TRAPEZOIDAL         10.00   440.00     5.09    84.00        1  5950.83
  CDT-135          TRAPEZOIDAL         10.00  1100.00     5.21   210.00        1  9272.35
  CDT-201          TRAPEZOIDAL         10.00  1100.00     5.21   210.00        1  1493.16
  CDT-23           TRAPEZOIDAL         10.00   440.00     5.09    84.00        1  3974.29
  CDT-27           TRAPEZOIDAL         10.00   440.00     5.09    84.00        1  3976.03
  CDT-31           TRAPEZOIDAL         10.00   440.00     5.09    84.00        1  4778.62
  CDT-35           TRAPEZOIDAL         10.00   440.00     5.09    84.00        1  4468.92
  CDT-37           TRAPEZOIDAL         10.00   440.00     5.09    84.00        1  2703.63
  CDT-39           TRAPEZOIDAL         10.00   440.00     5.09    84.00        1  3561.14
  CDT-43           TRAPEZOIDAL         10.00   440.00     5.09    84.00        1  3821.51
  CDT-47           TRAPEZOIDAL         10.00   440.00     5.09    84.00        1  5305.22
  CDT-51           TRAPEZOIDAL         10.00  1100.00     5.21   210.00        1  3694.14
  CDT-55           TRAPEZOIDAL         10.00  1100.00     5.21   210.00        1  3919.06
  CDT-59           TRAPEZOIDAL         10.00  1100.00     5.21   210.00        1  8223.80
  CDT-61           9785.036             9.75  2675.54     5.33   497.01        1 17790.03
  CDT-65           TRAPEZOIDAL         10.00   440.00     5.09    84.00        1  6340.23
  CDT-71           TRAPEZOIDAL         10.00  1100.00     5.21   210.00        1  8150.04
  CDT-93           TRAPEZOIDAL         10.00   440.00     5.09    84.00        1  5805.31
  CDT-95           TRAPEZOIDAL         10.00   440.00     5.09    84.00        1  5140.97
  CDT-97           TRAPEZOIDAL         10.00   440.00     5.09    84.00        1  5248.99
  CDT-99           TRAPEZOIDAL         10.00  1100.00     5.21   210.00        1  8791.65
  CRWAY_N_84TH_CULV CIRCULAR             1.50     1.77     0.38     1.50        1     5.40
  DRIVE_ON_RDGLND_LP_CULV CIRCULAR             1.50     1.77     0.38     1.50        1     8.92
  E_PROP_LINE_NRE_DETBASIN_CULV CIRCULAR             3.00     7.07     0.75     3.00        1    32.82
  E_PROP_LINE_NRE_DETBASIN_CULV2 CIRCULAR             2.00     3.14     0.50     2.00        1     8.12
  FENNEL_N_84TH_CULV CIRCULAR             1.50     1.77     0.38     1.50        1     4.89
  INLINE_NRE_DETBASIN_CULV CIRCULAR             3.00     7.07     0.75     3.00        1    29.68
  INLINE_NRE_DETBASIN_CULV2 CIRCULAR             3.00     7.07     0.75     3.00        1    24.24
  LINK1063         1734.071            28.10 23383.31    14.29  1623.42        1 345079.72
  LINK54           TRAPEZOIDAL         10.00   440.00     5.09    84.00        1  4289.03
  LINK56           TRAPEZOIDAL         10.00  1100.00     5.21   210.00        1  3735.67
  LINK60           TRAPEZOIDAL         10.00  1100.00     5.21   210.00        1  6664.71
  LINK62           7345.305            15.13  6000.23    10.08   592.03        1 45317.48
  LINK62.1         5836.442            11.35  2101.07     5.66   366.14        1 14981.50
  LINK62.1.1       4905.332            19.43  5475.71    12.33   432.56        1 50491.62
  LINK62.2         6675.592            17.60  4825.25     9.49   504.90        1 55245.80
  LINK63           4434.716            15.44  4063.83     8.60   463.53        1 39780.90
  LINK63.1         3113.573            17.66  4308.75     6.19   690.34        1 20545.47
  LINK63.1.1       2319.462            21.54 13641.00    10.18  1333.39        1 124888.60
  LINK63.1.2       2850.353            18.09  5654.22     6.49   863.73        1 22056.37
  LINK63.2         3760.473            14.34  3050.83     6.68   453.39        1 24525.43
  LINK63.2.1       3443.416            15.47  4091.23     6.43   632.03        1 30532.96
  LINK63.3         4074.389            14.30  2836.86     7.57   369.00        1 15727.03
  LINK65           1285.866            11.07  1470.76     5.11   284.15        1  4926.70
  LINK65.1         674                 22.77  4258.74    14.72   273.81        1 62234.20
  LINK67           3649.994             9.37  2900.25     4.61   625.02        1 29847.79
  LINK67.1         1413.59              7.57  1476.15     3.60   408.36        1 11482.04
  LINK67.1.1       361.9779            14.88  2488.81     7.11   347.09        1 30221.22
  LINK67.2         2685.516            11.96  2307.03     6.56   349.43        1 28275.01
  LINK70           TRAPEZOIDAL         10.00   440.00     5.09    84.00        1  2001.20
  LINK71           TRAPEZOIDAL         10.00   440.00     5.09    84.00        1  1840.57
  LINK73           11154.03            11.35  5390.71     6.83   785.56        1 49610.75
  LINK76           TRAPEZOIDAL         10.00  1100.00     5.21   210.00        1  9133.54
  LINK78           TRAPEZOIDAL         10.00  1100.00     5.21   210.00        1  7715.04
  NORTHWOOD_CENT_NRE_DETBASIN_CULV CIRCULAR             3.00     7.07     0.75     3.00        1    31.92
  NORTHWOOD_CEN_NRE_DETBASIN_CULV2 CIRCULAR             3.00     7.07     0.75     3.00        1    29.59
  NORTHWOOD_S_NRE_DETBASIN_CULV CIRCULAR             3.00     7.07     0.75     3.00        1    44.03
  NWOOD_N_NRE_DETBASIN_CULV CIRCULAR             1.50     1.77     0.38     1.50        1     3.77
  PARKSIDE_NRE_DETBASIN_CULV CIRCULAR             2.50     4.91     0.63     2.50        1    11.49
  PARKSIDE_NRE_DETBASIN_CULV2 CIRCULAR             2.50     4.91     0.63     2.50        1    16.68
  PRIVATE_DRIVE_S_79TH_CULV CIRCULAR             2.50     4.91     0.63     2.50        1    28.13
  PRIVATE_DR_N_79TH_1_CULV CIRCULAR             1.25     1.23     0.31     1.25        1     3.26
  PRIVATE_DR_N_OF_79TH_2_CULV CIRCULAR             2.00     3.14     0.50     2.00        1    19.18
  PRIVATE_DR_N_OF_79TH_2_CULV2 CIRCULAR             1.25     1.23     0.31     1.25        1     6.84
  PRIVATE_DR_S_79TH_2_CULV CIRCULAR             2.00     3.14     0.50     2.00        1    14.31
  RDGLND_LP_E_WASH_CULV CIRCULAR             1.50     1.77     0.38     1.50        1     8.22
  RIDGELAND_N_84TH_CULV CIRCULAR             1.50     1.77     0.38     1.50        1     7.29
  RIDGELAND_N_NRE_DETBASIN_CULV CIRCULAR             2.00     3.14     0.50     2.00        1    11.12
  RIDGELAND_S_84TH_CULV CIRCULAR             2.00     3.14     0.50     2.00        1    16.55
  RIDGELAND_S_NRE_DETBASIN_CULV CIRCULAR             3.00     7.07     0.75     3.00        1    38.11
  RIDGELAND_S_NRE_DETBASIN_CULV2 CIRCULAR             3.00     7.07     0.75     3.00        1    41.39
  SNFLWR_SAGE_CULV CIRCULAR             1.50     1.77     0.38     1.50        1     6.87
  SNFLWR_W_CRWAY_CULV CIRCULAR             3.00     7.07     0.75     3.00        1    35.78
  SNFLWR_W_SAGE_CULV CIRCULAR             1.50     1.77     0.38     1.50        1     6.28
  USH83_MAIN_CULV  ARCH                 6.00    41.76     1.79     8.83        1   197.94
  USH83_NE_79TH_CULV CIRCULAR             2.00     3.14     0.50     2.00        1    21.22
  USH83_N_11TH_CULV CIRCULAR             2.00     3.14     0.50     2.00        1    19.77
  USH83_N_1804_CULV CIRCULAR             3.50     9.62     0.88     3.50        1    42.68
  WAH_N_RDGLND_LP_CULV CIRCULAR             2.00     3.14     0.50     2.00        1    18.12
  WASH_N_1804_CULV CIRCULAR             1.50     1.77     0.38     1.50        1     4.73
  WASH_S_1804_CULV CIRCULAR             3.00     7.07     0.75     3.00        1    46.82
  
  
  
  ****************
  Transect Summary
  ****************

  Transect 1047.309
  Area:  
              0.0006     0.0025     0.0053     0.0089     0.0149 
              0.0241     0.0344     0.0451     0.0559     0.0670 
              0.0782     0.0897     0.1014     0.1132     0.1253 
              0.1376     0.1501     0.1628     0.1758     0.1890 
              0.2025     0.2168     0.2323     0.2487     0.2657 
              0.2838     0.3030     0.3235     0.3450     0.3669 
              0.3891     0.4116     0.4346     0.4589     0.4855 
              0.5132     0.5423     0.5726     0.6040     0.6363 
              0.6694     0.7031     0.7379     0.7737     0.8100 
              0.8468     0.8840     0.9216     0.9601     1.0000 
  Hrad:  
              0.0232     0.0417     0.0712     0.0838     0.0943 
              0.0985     0.1361     0.1743     0.2117     0.2489 
              0.2856     0.3216     0.3570     0.3920     0.4263 
              0.4601     0.4926     0.5242     0.5554     0.5845 
              0.6127     0.6388     0.6614     0.6815     0.6967 
              0.6987     0.7015     0.7074     0.6563     0.6882 
              0.7189     0.7476     0.7751     0.7742     0.7435 
              0.7486     0.7543     0.7689     0.7850     0.8059 
              0.8296     0.8520     0.8646     0.8883     0.9184 
              0.9482     0.9794     1.0126     1.0196     1.0000 
  Width: 
              0.0245     0.0596     0.0739     0.1102     0.1819 
              0.2452     0.2536     0.2591     0.2645     0.2693 
              0.2741     0.2790     0.2838     0.2886     0.2935 
              0.2985     0.3040     0.3097     0.3155     0.3223 
              0.3294     0.3635     0.3858     0.4033     0.4222 
              0.4497     0.4788     0.5071     0.5243     0.5317 
              0.5397     0.5491     0.5591     0.6231     0.6517 
              0.6843     0.7180     0.7437     0.7686     0.7887 
              0.8060     0.8245     0.8529     0.8704     0.8815 
              0.8926     0.9022     0.9097     0.9413     1.0000 

  Transect 11154.03
  Area:  
              0.0007     0.0028     0.0060     0.0096     0.0138 
              0.0185     0.0237     0.0296     0.0361     0.0431 
              0.0506     0.0590     0.0680     0.0779     0.0884 
              0.0994     0.1110     0.1244     0.1410     0.1594 
              0.1787     0.1987     0.2191     0.2404     0.2627 
              0.2859     0.3099     0.3346     0.3599     0.3858 
              0.4122     0.4389     0.4661     0.4947     0.5240 
              0.5538     0.5840     0.6145     0.6454     0.6765 
              0.7080     0.7399     0.7719     0.8040     0.8363 
              0.8688     0.9014     0.9341     0.9670     1.0000 
  Hrad:  
              0.0236     0.0315     0.0583     0.0813     0.1030 
              0.1257     0.1414     0.1568     0.1768     0.1972 
              0.2112     0.2242     0.2378     0.2520     0.2726 
              0.2919     0.3077     0.3218     0.3197     0.2795 
              0.2991     0.3255     0.3493     0.3647     0.3829 
              0.4012     0.4200     0.4425     0.4647     0.4878 
              0.5137     0.5401     0.5649     0.5620     0.5870 
              0.6103     0.6358     0.6627     0.6893     0.7146 
              0.7376     0.7670     0.7963     0.8254     0.8544 
              0.8833     0.9125     0.9418     0.9709     1.0000 
  Width: 
              0.0306     0.0893     0.1026     0.1187     0.1344 
              0.1472     0.1676     0.1887     0.2043     0.2185 
              0.2398     0.2630     0.2862     0.3093     0.3243 
              0.3405     0.3608     0.4560     0.5392     0.5704 
              0.5976     0.6106     0.6275     0.6594     0.6863 
              0.7127     0.7380     0.7563     0.7747     0.7910 
              0.8026     0.8128     0.8441     0.8803     0.8928 
              0.9075     0.9187     0.9274     0.9363     0.9468 
              0.9600     0.9647     0.9694     0.9741     0.9788 
              0.9836     0.9878     0.9919     0.9959     1.0000 

  Transect 1285.866
  Area:  
              0.0043     0.0125     0.0213     0.0305     0.0400 
              0.0498     0.0598     0.0700     0.0804     0.0911 
              0.1020     0.1131     0.1245     0.1361     0.1480 
              0.1603     0.1730     0.1861     0.1996     0.2134 
              0.2277     0.2423     0.2574     0.2728     0.2885 
              0.3045     0.3208     0.3374     0.3543     0.3714 
              0.3888     0.4069     0.4269     0.4485     0.4722 
              0.4972     0.5231     0.5499     0.5773     0.6073 
              0.6406     0.6771     0.7153     0.7542     0.7938 
              0.8339     0.8744     0.9156     0.9575     1.0000 
  Hrad:  
              0.0237     0.0630     0.1017     0.1401     0.1787 
              0.2168     0.2541     0.2907     0.3268     0.3617 
              0.3960     0.4297     0.4628     0.4945     0.5223 
              0.5439     0.5694     0.5960     0.6223     0.6468 
              0.6700     0.6932     0.7173     0.7444     0.7720 
              0.7992     0.8272     0.8560     0.8844     0.9129 
              0.9403     0.9657     0.9814     0.9863     0.8179 
              0.8318     0.8439     0.8650     0.8830     0.8926 
              0.8133     0.7838     0.7917     0.8215     0.8514 
              0.8836     0.9156     0.9425     0.9703     1.0000 
  Width: 
              0.1824     0.2001     0.2111     0.2194     0.2253 
              0.2308     0.2361     0.2414     0.2465     0.2519 
              0.2574     0.2628     0.2683     0.2743     0.2822 
              0.2934     0.3024     0.3107     0.3189     0.3280 
              0.3376     0.3473     0.3564     0.3639     0.3710 
              0.3782     0.3848     0.3910     0.3973     0.4034 
              0.4099     0.4503     0.4861     0.5232     0.5744 
              0.5949     0.6171     0.6330     0.6585     0.7501 
              0.8224     0.8732     0.9028     0.9175     0.9318 
              0.9433     0.9547     0.9712     0.9867     1.0000 

  Transect 1413.59
  Area:  
              0.0004     0.0014     0.0030     0.0050     0.0079 
              0.0124     0.0187     0.0265     0.0352     0.0447 
              0.0546     0.0651     0.0761     0.0875     0.0994 
              0.1117     0.1243     0.1375     0.1516     0.1664 
              0.1818     0.1977     0.2142     0.2315     0.2498 
              0.2689     0.2890     0.3107     0.3329     0.3557 
              0.3793     0.4036     0.4285     0.4542     0.4811 
              0.5089     0.5375     0.5669     0.5974     0.6290 
              0.6618     0.6957     0.7304     0.7661     0.8028 
              0.8403     0.8787     0.9182     0.9587     1.0000 
  Hrad:  
              0.0209     0.0447     0.0709     0.0898     0.0936 
              0.0960     0.1094     0.1338     0.1613     0.1935 
              0.2242     0.2533     0.2838     0.3135     0.3444 
              0.3755     0.4059     0.4239     0.4354     0.4610 
              0.4875     0.5141     0.5294     0.5449     0.5596 
              0.5762     0.5712     0.5931     0.6192     0.6428 
              0.6632     0.6873     0.7110     0.7215     0.7364 
              0.7563     0.7774     0.7944     0.8053     0.8171 
              0.8311     0.8503     0.8691     0.8847     0.9081 
              0.9297     0.9439     0.9607     0.9839     1.0000 
  Width: 
              0.0177     0.0324     0.0426     0.0561     0.0847 
              0.1288     0.1711     0.1978     0.2186     0.2309 
              0.2436     0.2570     0.2681     0.2792     0.2887 
              0.2975     0.3063     0.3243     0.3481     0.3609 
              0.3728     0.3844     0.4044     0.4249     0.4463 
              0.4666     0.5060     0.5238     0.5376     0.5534 
              0.5719     0.5872     0.6026     0.6296     0.6534 
              0.6730     0.6914     0.7137     0.7418     0.7700 
              0.7964     0.8182     0.8405     0.8662     0.8843 
              0.9040     0.9311     0.9560     0.9746     1.0000 

  Transect 1734.071
  Area:  
              0.0011     0.0028     0.0046     0.0066     0.0087 
              0.0110     0.0136     0.0165     0.0195     0.0226 
              0.0260     0.0296     0.0336     0.0379     0.0431 
              0.0493     0.0563     0.0644     0.0736     0.0843 
              0.0960     0.1088     0.1230     0.1390     0.1572 
              0.1776     0.2005     0.2255     0.2526     0.2819 
              0.3124     0.3440     0.3763     0.4094     0.4431 
              0.4774     0.5123     0.5476     0.5835     0.6198 
              0.6565     0.6937     0.7313     0.7691     0.8071 
              0.8453     0.8837     0.9223     0.9611     1.0000 
  Hrad:  
              0.0289     0.0624     0.0952     0.1256     0.1539 
              0.1743     0.1928     0.2192     0.2467     0.2728 
              0.2915     0.3042     0.3148     0.3135     0.2901 
              0.2943     0.2966     0.2844     0.2856     0.2918 
              0.3113     0.3121     0.3225     0.3155     0.3199 
              0.3183     0.3281     0.3372     0.3466     0.3672 
              0.3932     0.4209     0.4504     0.4786     0.5097 
              0.5402     0.5701     0.6015     0.6327     0.6639 
              0.6951     0.7260     0.7579     0.7933     0.8275 
              0.8625     0.8967     0.9315     0.9651     1.0000 
  Width: 
              0.0395     0.0448     0.0485     0.0524     0.0565 
              0.0631     0.0707     0.0751     0.0788     0.0827 
              0.0887     0.0970     0.1062     0.1206     0.1484 
              0.1674     0.1895     0.2262     0.2578     0.2892 
              0.3087     0.3489     0.3818     0.4412     0.4923 
              0.5592     0.6123     0.6702     0.7305     0.7696 
              0.7965     0.8193     0.8377     0.8577     0.8717 
              0.8861     0.9009     0.9128     0.9246     0.9360 
              0.9469     0.9580     0.9672     0.9715     0.9770 
              0.9815     0.9866     0.9907     0.9962     1.0000 

  Transect 2319.462
  Area:  
              0.0013     0.0037     0.0067     0.0099     0.0135 
              0.0175     0.0219     0.0266     0.0317     0.0371 
              0.0430     0.0492     0.0559     0.0630     0.0705 
              0.0785     0.0871     0.0969     0.1080     0.1215 
              0.1367     0.1529     0.1698     0.1874     0.2057 
              0.2245     0.2438     0.2637     0.2843     0.3058 
              0.3282     0.3518     0.3766     0.4034     0.4330 
              0.4646     0.4981     0.5325     0.5677     0.6038 
              0.6407     0.6783     0.7164     0.7553     0.7947 
              0.8346     0.8753     0.9164     0.9580     1.0000 
  Hrad:  
              0.0273     0.0572     0.0915     0.1231     0.1469 
              0.1773     0.2032     0.2258     0.2551     0.2762 
              0.2987     0.3228     0.3407     0.3641     0.3791 
              0.3993     0.4084     0.3950     0.3854     0.3531 
              0.3667     0.3875     0.4138     0.4392     0.4669 
              0.4962     0.5241     0.5477     0.5693     0.5912 
              0.5988     0.6115     0.6248     0.5937     0.5965 
              0.5942     0.6198     0.6434     0.6689     0.6985 
              0.7231     0.7550     0.7846     0.8131     0.8440 
              0.8720     0.9003     0.9330     0.9649     1.0000 
  Width: 
              0.0485     0.0655     0.0729     0.0803     0.0919 
              0.0988     0.1076     0.1178     0.1242     0.1344 
              0.1439     0.1524     0.1638     0.1728     0.1858 
              0.1965     0.2152     0.2451     0.2801     0.3439 
              0.3726     0.3944     0.4103     0.4266     0.4405 
              0.4523     0.4651     0.4814     0.4994     0.5172 
              0.5481     0.5753     0.6027     0.6797     0.7260 
              0.7820     0.8038     0.8278     0.8490     0.8646 
              0.8862     0.8986     0.9134     0.9291     0.9418 
              0.9574     0.9725     0.9825     0.9931     1.0000 

  Transect 235.84
  Area:  
              0.0040     0.0101     0.0171     0.0251     0.0341 
              0.0437     0.0539     0.0647     0.0759     0.0875 
              0.0996     0.1121     0.1250     0.1384     0.1521 
              0.1662     0.1806     0.1953     0.2102     0.2256 
              0.2415     0.2581     0.2760     0.2949     0.3143 
              0.3343     0.3547     0.3756     0.3970     0.4189 
              0.4411     0.4638     0.4871     0.5107     0.5348 
              0.5593     0.5844     0.6101     0.6367     0.6649 
              0.6945     0.7252     0.7578     0.7916     0.8256 
              0.8599     0.8945     0.9294     0.9646     1.0000 
  Hrad:  
              0.0259     0.0558     0.0836     0.1054     0.1325 
              0.1590     0.1857     0.2132     0.2400     0.2664 
              0.2927     0.3184     0.3432     0.3682     0.3937 
              0.4203     0.4470     0.4735     0.4984     0.5185 
              0.5365     0.5418     0.5332     0.5522     0.5732 
              0.5947     0.6160     0.6370     0.6590     0.6821 
              0.7036     0.7226     0.7444     0.7677     0.7881 
              0.8067     0.8257     0.8426     0.8343     0.8182 
              0.8270     0.8233     0.8101     0.8377     0.8653 
              0.8927     0.9199     0.9468     0.9735     1.0000 
  Width: 
              0.1579     0.1850     0.2085     0.2424     0.2617 
              0.2798     0.2954     0.3083     0.3211     0.3336 
              0.3453     0.3569     0.3692     0.3807     0.3911 
              0.4000     0.4083     0.4164     0.4258     0.4391 
              0.4542     0.4808     0.5228     0.5393     0.5536 
              0.5672     0.5809     0.5947     0.6074     0.6188 
              0.6316     0.6466     0.6589     0.6697     0.6830 
              0.6979     0.7124     0.7287     0.7686     0.8189 
              0.8464     0.8884     0.9440     0.9521     0.9601 
              0.9681     0.9761     0.9840     0.9920     1.0000 

  Transect 2586.361
  Area:  
              0.0011     0.0046     0.0088     0.0131     0.0177 
              0.0225     0.0276     0.0328     0.0382     0.0438 
              0.0496     0.0556     0.0619     0.0685     0.0755 
              0.0828     0.0906     0.0991     0.1089     0.1199 
              0.1314     0.1439     0.1571     0.1709     0.1854 
              0.2004     0.2160     0.2321     0.2489     0.2666 
              0.2851     0.3042     0.3243     0.3457     0.3681 
              0.3917     0.4174     0.4474     0.4818     0.5197 
              0.5623     0.6071     0.6529     0.7000     0.7478 
              0.7965     0.8459     0.8963     0.9480     1.0000 
  Hrad:  
              0.0240     0.0605     0.1073     0.1525     0.1967 
              0.2391     0.2806     0.3216     0.3607     0.3990 
              0.4365     0.4697     0.4984     0.5269     0.5510 
              0.5707     0.5797     0.5754     0.5256     0.5555 
              0.5757     0.5778     0.6061     0.6276     0.6548 
              0.6831     0.7098     0.7344     0.7540     0.7656 
              0.7891     0.8127     0.8177     0.8226     0.8315 
              0.8403     0.8369     0.8009     0.7821     0.7631 
              0.6750     0.6962     0.7349     0.7688     0.8084 
              0.8478     0.8844     0.9187     0.9532     1.0000 
  Width: 
              0.0509     0.0766     0.0816     0.0862     0.0901 
              0.0942     0.0981     0.1017     0.1056     0.1094 
              0.1133     0.1180     0.1238     0.1296     0.1364 
              0.1445     0.1557     0.1716     0.2067     0.2152 
              0.2277     0.2484     0.2586     0.2718     0.2826 
              0.2928     0.3037     0.3155     0.3296     0.3477 
              0.3607     0.3737     0.3961     0.4197     0.4422 
              0.4656     0.5301     0.6150     0.6823     0.7665 
              0.8330     0.8720     0.8884     0.9104     0.9251 
              0.9394     0.9564     0.9799     0.9945     1.0000 

  Transect 2685.516
  Area:  
              0.0014     0.0059     0.0118     0.0189     0.0267 
              0.0350     0.0438     0.0532     0.0632     0.0740 
              0.0854     0.0974     0.1098     0.1231     0.1369 
              0.1513     0.1662     0.1816     0.1974     0.2138 
              0.2307     0.2483     0.2665     0.2854     0.3048 
              0.3248     0.3455     0.3668     0.3887     0.4112 
              0.4343     0.4582     0.4827     0.5080     0.5340 
              0.5609     0.5885     0.6168     0.6457     0.6752 
              0.7053     0.7361     0.7673     0.7990     0.8311 
              0.8636     0.8967     0.9304     0.9647     1.0000 
  Hrad:  
              0.0196     0.0399     0.0652     0.0917     0.1207 
              0.1487     0.1756     0.1992     0.2202     0.2416 
              0.2648     0.2887     0.3104     0.3294     0.3521 
              0.3747     0.3969     0.4206     0.4447     0.4669 
              0.4834     0.5015     0.5216     0.5407     0.5595 
              0.5783     0.5967     0.6141     0.6346     0.6524 
              0.6690     0.6857     0.7024     0.7182     0.7339 
              0.7419     0.7617     0.7814     0.8010     0.8213 
              0.8395     0.8572     0.8839     0.9074     0.9318 
              0.9545     0.9721     0.9897     1.0128     1.0000 
  Width: 
              0.0727     0.1475     0.1816     0.2071     0.2218 
              0.2358     0.2498     0.2672     0.2874     0.3066 
              0.3228     0.3375     0.3542     0.3739     0.3891 
              0.4039     0.4187     0.4318     0.4439     0.4577 
              0.4772     0.4950     0.5109     0.5276     0.5446 
              0.5615     0.5788     0.5971     0.6123     0.6300 
              0.6490     0.6680     0.6870     0.7071     0.7273 
              0.7558     0.7725     0.7892     0.8059     0.8219 
              0.8398     0.8584     0.8678     0.8802     0.8916 
              0.9046     0.9223     0.9400     0.9524     1.0000 

  Transect 2850.353
  Area:  
              0.0002     0.0007     0.0014     0.0024     0.0035 
              0.0047     0.0062     0.0078     0.0096     0.0115 
              0.0134     0.0155     0.0176     0.0199     0.0222 
              0.0247     0.0272     0.0299     0.0326     0.0356 
              0.0389     0.0424     0.0468     0.0586     0.0749 
              0.0927     0.1115     0.1313     0.1522     0.1745 
              0.1983     0.2236     0.2503     0.2786     0.3081 
              0.3389     0.3722     0.4080     0.4470     0.4898 
              0.5354     0.5831     0.6318     0.6815     0.7323 
              0.7840     0.8367     0.8907     0.9451     1.0000 
  Hrad:  
              0.0279     0.0616     0.0939     0.1266     0.1575 
              0.1873     0.2163     0.2490     0.2833     0.3200 
              0.3556     0.3906     0.4248     0.4582     0.4904 
              0.5221     0.5518     0.5807     0.6040     0.6066 
              0.6009     0.6139     0.6116     0.2815     0.2377 
              0.2774     0.3181     0.3548     0.3894     0.4147 
              0.4459     0.4751     0.4998     0.5337     0.5604 
              0.5933     0.5989     0.6007     0.6082     0.6116 
              0.6326     0.6676     0.7108     0.7505     0.7892 
              0.8314     0.8665     0.9085     0.9568     1.0000 
  Width: 
              0.0068     0.0113     0.0151     0.0183     0.0216 
              0.0248     0.0280     0.0307     0.0329     0.0347 
              0.0365     0.0382     0.0399     0.0416     0.0433 
              0.0451     0.0470     0.0489     0.0514     0.0559 
              0.0618     0.0672     0.1259     0.2756     0.3131 
              0.3323     0.3487     0.3684     0.3893     0.4194 
              0.4434     0.4694     0.4998     0.5210     0.5489 
              0.5705     0.6208     0.6790     0.7349     0.8011 
              0.8469     0.8740     0.8896     0.9088     0.9288 
              0.9440     0.9667     0.9812     0.9881     1.0000 

  Transect 3113.573
  Area:  
              0.0022     0.0067     0.0120     0.0178     0.0241 
              0.0308     0.0378     0.0453     0.0531     0.0613 
              0.0700     0.0792     0.0889     0.0989     0.1093 
              0.1202     0.1314     0.1431     0.1551     0.1674 
              0.1801     0.1931     0.2065     0.2202     0.2342 
              0.2485     0.2633     0.2783     0.2938     0.3095 
              0.3256     0.3422     0.3601     0.3825     0.4075 
              0.4351     0.4656     0.4970     0.5293     0.5627 
              0.5976     0.6339     0.6716     0.7111     0.7527 
              0.7970     0.8444     0.8939     0.9460     1.0000 
  Hrad:  
              0.0352     0.0771     0.1225     0.1663     0.2095 
              0.2530     0.2949     0.3354     0.3748     0.4096 
              0.4415     0.4745     0.5095     0.5451     0.5808 
              0.6152     0.6464     0.6812     0.7178     0.7537 
              0.7892     0.8241     0.8598     0.8957     0.9291 
              0.9617     0.9940     1.0265     1.0601     1.0936 
              1.1258     1.1375     1.1461     1.1424     1.1295 
              0.8183     0.8488     0.8792     0.9122     0.9320 
              0.9476     0.9677     0.9853     0.9927     0.9948 
              0.9752     0.9868     0.9967     1.0117     1.0000 
  Width: 
              0.0628     0.0875     0.0978     0.1070     0.1150 
              0.1216     0.1282     0.1349     0.1415     0.1495 
              0.1583     0.1667     0.1740     0.1810     0.1878 
              0.1947     0.2026     0.2093     0.2152     0.2212 
              0.2272     0.2332     0.2389     0.2445     0.2506 
              0.2570     0.2633     0.2695     0.2754     0.2812 
              0.2874     0.2989     0.3700     0.4209     0.4622 
              0.5304     0.5472     0.5640     0.5790     0.6026 
              0.6295     0.6540     0.6807     0.7154     0.7558 
              0.8166     0.8552     0.8965     0.9348     1.0000 

  Transect 3443.416
  Area:  
              0.0014     0.0047     0.0091     0.0143     0.0199 
              0.0259     0.0322     0.0390     0.0463     0.0552 
              0.0649     0.0752     0.0858     0.0968     0.1081 
              0.1197     0.1314     0.1434     0.1557     0.1682 
              0.1811     0.1942     0.2077     0.2214     0.2355 
              0.2499     0.2646     0.2798     0.2953     0.3120 
              0.3332     0.3583     0.3849     0.4127     0.4412 
              0.4708     0.5022     0.5348     0.5681     0.6020 
              0.6368     0.6725     0.7091     0.7465     0.7850 
              0.8252     0.8667     0.9091     0.9531     1.0000 
  Hrad:  
              0.0231     0.0580     0.0891     0.1272     0.1640 
              0.2008     0.2343     0.2663     0.2871     0.2828 
              0.3069     0.3429     0.3787     0.4146     0.4522 
              0.4902     0.5277     0.5646     0.6000     0.6326 
              0.6638     0.6955     0.7280     0.7598     0.7890 
              0.8170     0.8447     0.8700     0.8933     0.9040 
              0.6610     0.6583     0.6743     0.7013     0.7250 
              0.7444     0.7403     0.7754     0.8085     0.8373 
              0.8634     0.8889     0.9144     0.9424     0.9528 
              0.9637     0.9868     1.0113     0.9835     1.0000 
  Width: 
              0.0590     0.0813     0.1027     0.1125     0.1214 
              0.1290     0.1376     0.1466     0.1614     0.1951 
              0.2115     0.2192     0.2266     0.2334     0.2390 
              0.2439     0.2488     0.2536     0.2590     0.2654 
              0.2721     0.2786     0.2845     0.2906     0.2976 
              0.3050     0.3123     0.3206     0.3296     0.3932 
              0.5034     0.5436     0.5702     0.5878     0.6080 
              0.6319     0.6778     0.6892     0.7021     0.7184 
              0.7370     0.7561     0.7750     0.7917     0.8235 
              0.8559     0.8780     0.8988     0.9690     1.0000 

  Transect 361.9779
  Area:  
              0.0018     0.0056     0.0104     0.0158     0.0217 
              0.0282     0.0353     0.0429     0.0509     0.0594 
              0.0683     0.0777     0.0876     0.0980     0.1089 
              0.1203     0.1321     0.1445     0.1573     0.1706 
              0.1845     0.1989     0.2139     0.2296     0.2458 
              0.2628     0.2806     0.2995     0.3197     0.3422 
              0.3664     0.3918     0.4181     0.4454     0.4736 
              0.5027     0.5327     0.5634     0.5950     0.6274 
              0.6606     0.6947     0.7296     0.7653     0.8020 
              0.8397     0.8784     0.9182     0.9588     1.0000 
  Hrad:  
              0.0256     0.0525     0.0844     0.1155     0.1449 
              0.1728     0.1995     0.2275     0.2557     0.2832 
              0.3095     0.3340     0.3580     0.3817     0.4043 
              0.4274     0.4521     0.4761     0.4990     0.5194 
              0.5399     0.5590     0.5769     0.5958     0.6132 
              0.6250     0.6358     0.6385     0.6200     0.6038 
              0.6124     0.6271     0.6482     0.6652     0.6851 
              0.7072     0.7280     0.7503     0.7717     0.7931 
              0.8144     0.8356     0.8570     0.8788     0.8951 
              0.9108     0.9286     0.9469     0.9730     1.0000 
  Width: 
              0.0725     0.1064     0.1231     0.1367     0.1500 
              0.1635     0.1769     0.1884     0.1991     0.2095 
              0.2204     0.2324     0.2443     0.2562     0.2687 
              0.2808     0.2916     0.3027     0.3143     0.3275 
              0.3407     0.3548     0.3698     0.3843     0.3998 
              0.4194     0.4403     0.4680     0.5148     0.5661 
              0.5978     0.6243     0.6446     0.6691     0.6909 
              0.7105     0.7313     0.7505     0.7706     0.7907 
              0.8109     0.8310     0.8510     0.8706     0.8957 
              0.9218     0.9459     0.9696     0.9854     1.0000 

  Transect 3649.994
  Area:  
              0.0012     0.0033     0.0060     0.0095     0.0135 
              0.0181     0.0233     0.0294     0.0373     0.0460 
              0.0554     0.0656     0.0770     0.0891     0.1017 
              0.1147     0.1285     0.1428     0.1577     0.1731 
              0.1890     0.2055     0.2223     0.2395     0.2572 
              0.2755     0.2943     0.3134     0.3330     0.3531 
              0.3735     0.3947     0.4167     0.4396     0.4657 
              0.4948     0.5259     0.5577     0.5901     0.6231 
              0.6574     0.6927     0.7288     0.7655     0.8030 
              0.8413     0.8802     0.9198     0.9597     1.0000 
  Hrad:  
              0.0257     0.0572     0.0769     0.1017     0.1276 
              0.1482     0.1726     0.1652     0.1788     0.2063 
              0.2288     0.2469     0.2637     0.2903     0.3208 
              0.3477     0.3676     0.3947     0.4213     0.4461 
              0.4717     0.4998     0.5279     0.5544     0.5774 
              0.5996     0.6264     0.6546     0.6783     0.7058 
              0.7277     0.7376     0.7498     0.7721     0.7889 
              0.7973     0.6715     0.7019     0.7302     0.7557 
              0.7603     0.7839     0.8090     0.8348     0.8554 
              0.8810     0.9056     0.9329     0.9665     1.0000 
  Width: 
              0.0467     0.0582     0.0777     0.0936     0.1059 
              0.1224     0.1352     0.1783     0.2088     0.2233 
              0.2422     0.2660     0.2920     0.3070     0.3171 
              0.3301     0.3497     0.3621     0.3745     0.3883 
              0.4010     0.4113     0.4213     0.4321     0.4456 
              0.4596     0.4700     0.4790     0.4911     0.5004 
              0.5134     0.5352     0.5560     0.5926     0.6856 
              0.7471     0.7836     0.7950     0.8086     0.8250 
              0.8652     0.8843     0.9014     0.9176     0.9394 
              0.9554     0.9725     0.9866     0.9933     1.0000 

  Transect 3760.473
  Area:  
              0.0031     0.0100     0.0178     0.0263     0.0353 
              0.0450     0.0552     0.0659     0.0771     0.0888 
              0.1009     0.1134     0.1263     0.1396     0.1532 
              0.1671     0.1814     0.1961     0.2112     0.2267 
              0.2426     0.2589     0.2755     0.2926     0.3099 
              0.3277     0.3459     0.3647     0.3842     0.4043 
              0.4250     0.4466     0.4690     0.4924     0.5166 
              0.5416     0.5675     0.5940     0.6216     0.6501 
              0.6794     0.7100     0.7416     0.7742     0.8079 
              0.8429     0.8796     0.9179     0.9579     1.0000 
  Hrad:  
              0.0278     0.0573     0.0933     0.1283     0.1616 
              0.1935     0.2245     0.2562     0.2877     0.3185 
              0.3495     0.3808     0.4114     0.4417     0.4736 
              0.5046     0.5324     0.5607     0.5889     0.6155 
              0.6418     0.6681     0.6964     0.7244     0.7510 
              0.7740     0.7955     0.8114     0.8268     0.8425 
              0.8570     0.8639     0.8721     0.8815     0.8927 
              0.9046     0.9222     0.9361     0.9429     0.9580 
              0.9672     0.9700     0.9834     0.9997     1.0010 
              1.0022     1.0012     0.9975     0.9996     1.0000 
  Width: 
              0.1241     0.1749     0.1916     0.2053     0.2190 
              0.2328     0.2461     0.2577     0.2683     0.2790 
              0.2889     0.2979     0.3070     0.3160     0.3233 
              0.3310     0.3405     0.3495     0.3583     0.3679 
              0.3775     0.3869     0.3951     0.4031     0.4119 
              0.4226     0.4340     0.4487     0.4639     0.4790 
              0.4951     0.5161     0.5370     0.5578     0.5779 
              0.5980     0.6145     0.6338     0.6584     0.6779 
              0.7017     0.7312     0.7535     0.7738     0.8065 
              0.8407     0.8781     0.9200     0.9582     1.0000 

  Transect 4074.389
  Area:  
              0.0022     0.0078     0.0143     0.0213     0.0285 
              0.0362     0.0441     0.0523     0.0608     0.0697 
              0.0790     0.0888     0.0991     0.1100     0.1218 
              0.1345     0.1478     0.1621     0.1772     0.1932 
              0.2102     0.2284     0.2476     0.2675     0.2880 
              0.3090     0.3306     0.3528     0.3755     0.3987 
              0.4225     0.4470     0.4721     0.4977     0.5240 
              0.5510     0.5788     0.6073     0.6366     0.6666 
              0.6975     0.7295     0.7619     0.7946     0.8276 
              0.8609     0.8946     0.9287     0.9637     1.0000 
  Hrad:  
              0.0166     0.0478     0.0798     0.1123     0.1439 
              0.1747     0.2050     0.2345     0.2620     0.2877 
              0.3108     0.3306     0.3541     0.3625     0.3719 
              0.3852     0.4007     0.4131     0.4257     0.4386 
              0.4494     0.4539     0.4730     0.4960     0.5194 
              0.5425     0.5653     0.5880     0.6118     0.6364 
              0.6527     0.6750     0.6969     0.7185     0.7353 
              0.7521     0.7690     0.7860     0.8027     0.8188 
              0.8331     0.8434     0.8737     0.9035     0.9326 
              0.9585     0.9834     1.0030     1.0071     1.0000 
  Width: 
              0.1328     0.1660     0.1815     0.1913     0.2003 
              0.2089     0.2169     0.2248     0.2339     0.2440 
              0.2559     0.2703     0.2815     0.3051     0.3293 
              0.3510     0.3710     0.3946     0.4186     0.4430 
              0.4704     0.5062     0.5267     0.5426     0.5578 
              0.5730     0.5882     0.6034     0.6172     0.6299 
              0.6508     0.6658     0.6810     0.6964     0.7164 
              0.7366     0.7567     0.7769     0.7974     0.8187 
              0.8420     0.8696     0.8761     0.8828     0.8900 
              0.9001     0.9109     0.9266     0.9572     1.0000 

  Transect 4434.716
  Area:  
              0.0012     0.0035     0.0073     0.0122     0.0186 
              0.0262     0.0343     0.0430     0.0521     0.0616 
              0.0713     0.0813     0.0915     0.1019     0.1126 
              0.1235     0.1346     0.1459     0.1575     0.1692 
              0.1814     0.1947     0.2093     0.2252     0.2426 
              0.2612     0.2811     0.3029     0.3268     0.3528 
              0.3809     0.4107     0.4408     0.4713     0.5020 
              0.5330     0.5647     0.5969     0.6293     0.6619 
              0.6948     0.7278     0.7610     0.7944     0.8279 
              0.8618     0.8959     0.9302     0.9649     1.0000 
  Hrad:  
              0.0240     0.0420     0.0625     0.0765     0.0925 
              0.1189     0.1444     0.1726     0.2007     0.2290 
              0.2579     0.2870     0.3156     0.3437     0.3718 
              0.3998     0.4275     0.4544     0.4807     0.5058 
              0.5115     0.4950     0.4846     0.4818     0.4793 
              0.4863     0.4812     0.4722     0.4669     0.4652 
              0.4662     0.4874     0.5183     0.5488     0.5790 
              0.6042     0.6274     0.6565     0.6858     0.7159 
              0.7465     0.7781     0.8096     0.8394     0.8677 
              0.8957     0.9236     0.9497     0.9750     1.0000 
  Width: 
              0.0515     0.0851     0.1180     0.1613     0.2043 
              0.2231     0.2412     0.2528     0.2632     0.2724 
              0.2799     0.2867     0.2934     0.3000     0.3063 
              0.3123     0.3181     0.3244     0.3308     0.3378 
              0.3580     0.3972     0.4365     0.4724     0.5118 
              0.5431     0.5907     0.6489     0.7083     0.7677 
              0.8271     0.8526     0.8601     0.8677     0.8753 
              0.8901     0.9077     0.9162     0.9240     0.9305 
              0.9360     0.9400     0.9440     0.9496     0.9570 
              0.9643     0.9716     0.9805     0.9903     1.0000 

  Transect 4905.332
  Area:  
              0.0032     0.0085     0.0145     0.0209     0.0278 
              0.0351     0.0429     0.0512     0.0600     0.0696 
              0.0798     0.0906     0.1021     0.1144     0.1274 
              0.1413     0.1563     0.1720     0.1884     0.2056 
              0.2236     0.2423     0.2614     0.2812     0.3018 
              0.3230     0.3451     0.3680     0.3925     0.4198 
              0.4472     0.4749     0.5026     0.5306     0.5587 
              0.5870     0.6154     0.6439     0.6726     0.7015 
              0.7305     0.7597     0.7891     0.8187     0.8485 
              0.8785     0.9086     0.9389     0.9694     1.0000 
  Hrad:  
              0.0215     0.0469     0.0728     0.0982     0.1231 
              0.1469     0.1675     0.1864     0.2048     0.2205 
              0.2379     0.2554     0.2686     0.2826     0.2973 
              0.3043     0.3192     0.3361     0.3499     0.3649 
              0.3813     0.4024     0.4211     0.4358     0.4525 
              0.4645     0.4809     0.4940     0.4589     0.4801 
              0.5077     0.5351     0.5623     0.5893     0.6167 
              0.6444     0.6719     0.6984     0.7242     0.7502 
              0.7765     0.8024     0.8262     0.8497     0.8748 
              0.9001     0.9253     0.9503     0.9752     1.0000 
  Width: 
              0.1535     0.1853     0.2033     0.2178     0.2309 
              0.2440     0.2611     0.2801     0.2991     0.3218 
              0.3421     0.3616     0.3875     0.4127     0.4371 
              0.4736     0.4994     0.5218     0.5491     0.5748 
              0.5982     0.6141     0.6329     0.6580     0.6801 
              0.7092     0.7318     0.7597     0.8724     0.8911 
              0.8968     0.9025     0.9081     0.9137     0.9184 
              0.9224     0.9265     0.9319     0.9378     0.9433 
              0.9481     0.9533     0.9608     0.9685     0.9742 
              0.9793     0.9845     0.9897     0.9948     1.0000 

  Transect 5836.442
  Area:  
              0.0023     0.0082     0.0170     0.0262     0.0357 
              0.0456     0.0558     0.0664     0.0772     0.0883 
              0.0998     0.1115     0.1235     0.1358     0.1484 
              0.1613     0.1746     0.1881     0.2020     0.2162 
              0.2308     0.2457     0.2609     0.2764     0.2922 
              0.3084     0.3249     0.3419     0.3595     0.3779 
              0.3972     0.4175     0.4387     0.4609     0.4840 
              0.5079     0.5327     0.5587     0.5886     0.6235 
              0.6592     0.6955     0.7322     0.7692     0.8068 
              0.8447     0.8830     0.9216     0.9606     1.0000 
  Hrad:  
              0.0271     0.0385     0.0756     0.1117     0.1467 
              0.1811     0.2147     0.2474     0.2802     0.3124 
              0.3440     0.3749     0.4043     0.4330     0.4622 
              0.4909     0.5192     0.5471     0.5709     0.5968 
              0.6233     0.6495     0.6753     0.7008     0.7250 
              0.7487     0.7707     0.7878     0.7947     0.7957 
              0.7976     0.7999     0.8037     0.8101     0.8188 
              0.8284     0.8369     0.8341     0.7644     0.7002 
              0.7281     0.7562     0.7909     0.8174     0.8481 
              0.8789     0.9096     0.9399     0.9701     1.0000 
  Width: 
              0.0862     0.2161     0.2272     0.2367     0.2459 
              0.2541     0.2623     0.2705     0.2777     0.2850 
              0.2921     0.2994     0.3074     0.3156     0.3231 
              0.3307     0.3382     0.3457     0.3557     0.3642 
              0.3721     0.3800     0.3881     0.3961     0.4048 
              0.4136     0.4234     0.4359     0.4543     0.4771 
              0.5004     0.5245     0.5486     0.5719     0.5942 
              0.6164     0.6400     0.6737     0.8638     0.8956 
              0.9101     0.9240     0.9294     0.9442     0.9540 
              0.9632     0.9724     0.9816     0.9908     1.0000 

  Transect 594.8249
  Area:  
              0.0034     0.0083     0.0140     0.0201     0.0265 
              0.0334     0.0406     0.0484     0.0567     0.0657 
              0.0754     0.0857     0.0969     0.1091     0.1222 
              0.1363     0.1516     0.1680     0.1853     0.2034 
              0.2224     0.2421     0.2627     0.2839     0.3057 
              0.3280     0.3507     0.3741     0.3982     0.4233 
              0.4498     0.4772     0.5052     0.5332     0.5614 
              0.5897     0.6182     0.6468     0.6755     0.7044 
              0.7334     0.7625     0.7918     0.8211     0.8506 
              0.8803     0.9100     0.9399     0.9699     1.0000 
  Hrad:  
              0.0242     0.0482     0.0747     0.1001     0.1251 
              0.1485     0.1694     0.1883     0.2038     0.2199 
              0.2364     0.2484     0.2577     0.2695     0.2807 
              0.2914     0.2976     0.3112     0.3278     0.3420 
              0.3596     0.3749     0.3925     0.4126     0.4339 
              0.4550     0.4753     0.4938     0.5052     0.5121 
              0.5219     0.5348     0.5623     0.5895     0.6166 
              0.6434     0.6699     0.6963     0.7224     0.7483 
              0.7741     0.7999     0.8254     0.8508     0.8760 
              0.9011     0.9260     0.9509     0.9755     1.0000 
  Width: 
              0.1450     0.1802     0.1951     0.2085     0.2202 
              0.2329     0.2483     0.2657     0.2878     0.3091 
              0.3296     0.3566     0.3891     0.4190     0.4508 
              0.4844     0.5274     0.5592     0.5855     0.6163 
              0.6407     0.6692     0.6934     0.7127     0.7296 
              0.7462     0.7637     0.7839     0.8158     0.8558 
              0.8922     0.9237     0.9280     0.9323     0.9366 
[...]
  RDGLND_LP_E_WASH_CULV CONDUIT      0.00     0  00:00      0.00    0.00    0.00
  RIDGELAND_N_84TH_CULV CONDUIT      0.00     0  00:00      0.00    0.00    0.00
  RIDGELAND_N_NRE_DETBASIN_CULV CONDUIT      0.00     0  00:00      0.00    0.00    0.00
  RIDGELAND_S_84TH_CULV CONDUIT      0.00     0  00:00      0.00    0.00    0.00
  RIDGELAND_S_NRE_DETBASIN_CULV CONDUIT      0.00     0  00:00      0.00    0.00    0.00
  RIDGELAND_S_NRE_DETBASIN_CULV2 CONDUIT      0.00     0  00:00      0.00    0.00    0.00
  SNFLWR_SAGE_CULV     CONDUIT      0.00     0  00:00      0.00    0.00    0.00
  SNFLWR_W_CRWAY_CULV  CONDUIT      0.00     0  00:00      0.00    0.00    0.00
  SNFLWR_W_SAGE_CULV   CONDUIT      0.00     0  00:00      0.00    0.00    0.00
  USH83_MAIN_CULV      CONDUIT      0.00     0  00:00      0.00    0.00    0.00
  USH83_NE_79TH_CULV   CONDUIT      0.00     0  00:00      0.00    0.00    0.00
  USH83_N_11TH_CULV    CONDUIT      0.00     0  00:00      0.00    0.00    0.00
  USH83_N_1804_CULV    CONDUIT      0.00     0  00:00      0.00    0.00    0.00
  WAH_N_RDGLND_LP_CULV CONDUIT      0.00     0  00:00      0.00    0.00    0.00
  WASH_N_1804_CULV     CONDUIT      0.00     0  00:00      0.00    0.00    0.00
  WASH_S_1804_CULV     CONDUIT      0.00     0  00:00      0.00    0.00    0.00
  11TH_OVER            WEIR         0.00     0  00:00                      0.00
  1804_W_OF_USH83_OVER WEIR         0.00     0  00:00                      0.00
  1804_W_OF_WASH_OVER  WEIR         0.00     0  00:00                      0.00
  79TH_E_OF_PRIVATE_DR_OVER WEIR         0.00     0  00:00                      0.00
  79TH_NEAR_PRIV_DR_OVER WEIR         0.00     0  00:00                      0.00
  79TH_W_DRIVEWAYS_OVER WEIR         0.00     0  00:00                      0.00
  84TH_E_OF_RIDGELAND_OVER WEIR         0.00     0  00:00                      0.00
  84TH_W_OF_FENNEL_OVER WEIR         0.00     0  00:00                      0.00
  CRWAY_N_OF_84TH_OVER WEIR         0.00     0  00:00                      0.00
  DRIVE_ON_RDGLND_LP_OVER WEIR         0.00     0  00:00                      0.00
  E_PROP_LINE_NRE_DETBASIN_OVER WEIR         0.00     0  00:00                      0.00
  FENNEL_N_OF_84TH_OVER WEIR         0.00     0  00:00                      0.00
  INLINE_NRE_DETBASIN_OVER WEIR         0.00     0  00:00                      0.00
  NORTHWOOD_CENT_NRE_DETBASIN_OVER WEIR         0.00     0  00:00                      0.00
  NORTHWOOD_N_DETBASIN_OVER WEIR         0.00     0  00:00                      0.00
  NORTHWOOD_S_NRE_DETBASIN_OVER WEIR         0.00     0  00:00                      0.00
  PARKSIDE_NRE_DETBASIN_OVER WEIR         0.00     0  00:00                      0.00
  PRIVATE_DRIVE_S_OF_79TH_OVER WEIR         0.00     0  00:00                      0.00
  PRIVATE_DR_N_OF_79TH_1_OVER WEIR         0.00     0  00:00                      0.00
  PRIVATE_DR_N_OF_79TH_2_OVER WEIR         0.00     0  00:00                      0.00
  PRIVATE_DR_S_79TH_2_OVER WEIR         0.00     0  00:00                      0.00
  RDGLND_LP_E_OF_WASH_OVER WEIR         0.00     0  00:00                      0.00
  RIDGELAND_N_NRE_DETBASIN_OVER WEIR         0.00     0  00:00                      0.00
  RIDGELAND_N_OF_84TH_OVER WEIR         0.00     0  00:00                      0.00
  RIDGELAND_S_NRE_DETBASIN_OVER WEIR         0.00     0  00:00                      0.00
  RIDGELAND_S_OF_84TH_OVER WEIR         0.00     0  00:00                      0.00
  SNFLWR_SAGE_OVER     WEIR         0.00     0  00:00                      0.00
  SNFLWR_W_OF_CRWAY_OVER WEIR         0.00     0  00:00                      0.00
  SNFLWR_W_OF_SAGE_OVER WEIR         0.00     0  00:00                      0.00
  USH83_MAIN_OVER      WEIR         0.00     0  00:00                      0.00
  USH83_N_OF_11TH_OVER WEIR         0.00     0  00:00                      0.00
  USH83_UPPER_OVER     WEIR         0.00     0  00:00                      0.00
  USH_NE_OF_79TH_OVER  WEIR         0.00     0  00:00                      0.00
  WASH_N_OF_1804_OVER  WEIR         0.00     0  00:00                      0.00
  WASH_N_OF_RDGLND_LP_OVER WEIR         0.00     0  00:00                      0.00
  WASH_S_OF_1804_OVER  WEIR         0.00     0  00:00                      0.00
  
  
  ***************************
  Flow Classification Summary
  ***************************
  
  -------------------------------------------------------------------------------------
                      Adjusted    ---------- Fraction of Time in Flow Class ---------- 
                       /Actual         Up    Down  Sub   Sup   Up    Down  Norm  Inlet 
  Conduit               Length    Dry  Dry   Dry   Crit  Crit  Crit  Crit  Ltd   Ctrl  
  -------------------------------------------------------------------------------------
  11TH_CULV               1.52   -nan(ind)  -nan(ind)  -nan(ind)  -nan(ind)  -nan(ind)  -nan(ind)  -nan(ind)  -nan(ind)  -nan(ind)
  11TH_CULV2              1.51   -nan(ind)  -nan(ind)  -nan(ind)  -nan(ind)  -nan(ind)  -nan(ind)  -nan(ind)  -nan(ind)  -nan(ind)
  11TH_CULV3              1.46   -nan(ind)  -nan(ind)  -nan(ind)  -nan(ind)  -nan(ind)  -nan(ind)  -nan(ind)  -nan(ind)  -nan(ind)
  1804_W_USH83_CULV       1.00   -nan(ind)  -nan(ind)  -nan(ind)  -nan(ind)  -nan(ind)  -nan(ind)  -nan(ind)  -nan(ind)  -nan(ind)
  1804_W_USH83_CULV2      1.00   -nan(ind)  -nan(ind)  -nan(ind)  -nan(ind)  -nan(ind)  -nan(ind)  -nan(ind)  -nan(ind)  -nan(ind)
  1804_W_USH83_CULV3      1.00   -nan(ind)  -nan(ind)  -nan(ind)  -nan(ind)  -nan(ind)  -nan(ind)  -nan(ind)  -nan(ind)  -nan(ind)
  1804_W_USH83_CULV4      1.00   -nan(ind)  -nan(ind)  -nan(ind)  -nan(ind)  -nan(ind)  -nan(ind)  -nan(ind)  -nan(ind)  -nan(ind)
  1804_W_WASH_CULV        2.36   -nan(ind)  -nan(ind)  -nan(ind)  -nan(ind)  -nan(ind)  -nan(ind)  -nan(ind)  -nan(ind)  -nan(ind)
  79TH_E_PRIVATE_DR_CULV    1.84   -nan(ind)  -nan(ind)  -nan(ind)  -nan(ind)  -nan(ind)  -nan(ind)  -nan(ind)  -nan(ind)  -nan(ind)
  79TH_NEAR_PRIV_DR_CULV    2.43   -nan(ind)  -nan(ind)  -nan(ind)  -nan(ind)  -nan(ind)  -nan(ind)  -nan(ind)  -nan(ind)  -nan(ind)
  79TH_NEAR_PRIV_DR_CULV2    2.16   -nan(ind)  -nan(ind)  -nan(ind)  -nan(ind)  -nan(ind)  -nan(ind)  -nan(ind)  -nan(ind)  -nan(ind)
  79TH_NEAR_PRIV_DR_CULV3    1.59   -nan(ind)  -nan(ind)  -nan(ind)  -nan(ind)  -nan(ind)  -nan(ind)  -nan(ind)  -nan(ind)  -nan(ind)
  79TH_W_DRIVEWAYS_CULV    1.94   -nan(ind)  -nan(ind)  -nan(ind)  -nan(ind)  -nan(ind)  -nan(ind)  -nan(ind)  -nan(ind)  -nan(ind)
  84TH_E_RIDGELAND_CULV    1.00   -nan(ind)  -nan(ind)  -nan(ind)  -nan(ind)  -nan(ind)  -nan(ind)  -nan(ind)  -nan(ind)  -nan(ind)
  84TH_W_FENNEL_CULV      1.12   -nan(ind)  -nan(ind)  -nan(ind)  -nan(ind)  -nan(ind)  -nan(ind)  -nan(ind)  -nan(ind)  -nan(ind)
  CDT-101                 1.00   -nan(ind)  -nan(ind)  -nan(ind)  -nan(ind)  -nan(ind)  -nan(ind)  -nan(ind)  -nan(ind)  -nan(ind)
  CDT-103                 1.00   -nan(ind)  -nan(ind)  -nan(ind)  -nan(ind)  -nan(ind)  -nan(ind)  -nan(ind)  -nan(ind)  -nan(ind)
  CDT-105                 1.00   -nan(ind)  -nan(ind)  -nan(ind)  -nan(ind)  -nan(ind)  -nan(ind)  -nan(ind)  -nan(ind)  -nan(ind)
  CDT-107                 1.00   -nan(ind)  -nan(ind)  -nan(ind)  -nan(ind)  -nan(ind)  -nan(ind)  -nan(ind)  -nan(ind)  -nan(ind)
  CDT-109                 1.00   -nan(ind)  -nan(ind)  -nan(ind)  -nan(ind)  -nan(ind)  -nan(ind)  -nan(ind)  -nan(ind)  -nan(ind)
  CDT-111                 1.00   -nan(ind)  -nan(ind)  -nan(ind)  -nan(ind)  -nan(ind)  -nan(ind)  -nan(ind)  -nan(ind)  -nan(ind)
  CDT-113                 1.00   -nan(ind)  -nan(ind)  -nan(ind)  -nan(ind)  -nan(ind)  -nan(ind)  -nan(ind)  -nan(ind)  -nan(ind)
  CDT-115                 2.95   -nan(ind)  -nan(ind)  -nan(ind)  -nan(ind)  -nan(ind)  -nan(ind)  -nan(ind)  -nan(ind)  -nan(ind)
  CDT-117                 1.00   -nan(ind)  -nan(ind)  -nan(ind)  -nan(ind)  -nan(ind)  -nan(ind)  -nan(ind)  -nan(ind)  -nan(ind)
  CDT-119                 1.00   -nan(ind)  -nan(ind)  -nan(ind)  -nan(ind)  -nan(ind)  -nan(ind)  -nan(ind)  -nan(ind)  -nan(ind)
  CDT-121                 1.00   -nan(ind)  -nan(ind)  -nan(ind)  -nan(ind)  -nan(ind)  -nan(ind)  -nan(ind)  -nan(ind)  -nan(ind)
  CDT-123                 1.00   -nan(ind)  -nan(ind)  -nan(ind)  -nan(ind)  -nan(ind)  -nan(ind)  -nan(ind)  -nan(ind)  -nan(ind)
  CDT-125                 1.00   -nan(ind)  -nan(ind)  -nan(ind)  -nan(ind)  -nan(ind)  -nan(ind)  -nan(ind)  -nan(ind)  -nan(ind)
  CDT-127                 1.00   -nan(ind)  -nan(ind)  -nan(ind)  -nan(ind)  -nan(ind)  -nan(ind)  -nan(ind)  -nan(ind)  -nan(ind)
  CDT-129                 1.00   -nan(ind)  -nan(ind)  -nan(ind)  -nan(ind)  -nan(ind)  -nan(ind)  -nan(ind)  -nan(ind)  -nan(ind)
  CDT-131                 1.14   -nan(ind)  -nan(ind)  -nan(ind)  -nan(ind)  -nan(ind)  -nan(ind)  -nan(ind)  -nan(ind)  -nan(ind)
  CDT-133                 1.00   -nan(ind)  -nan(ind)  -nan(ind)  -nan(ind)  -nan(ind)  -nan(ind)  -nan(ind)  -nan(ind)  -nan(ind)
  CDT-135                 1.00   -nan(ind)  -nan(ind)  -nan(ind)  -nan(ind)  -nan(ind)  -nan(ind)  -nan(ind)  -nan(ind)  -nan(ind)
  CDT-201                 1.00   -nan(ind)  -nan(ind)  -nan(ind)  -nan(ind)  -nan(ind)  -nan(ind)  -nan(ind)  -nan(ind)  -nan(ind)
  CDT-23                  1.00   -nan(ind)  -nan(ind)  -nan(ind)  -nan(ind)  -nan(ind)  -nan(ind)  -nan(ind)  -nan(ind)  -nan(ind)
  CDT-27                  1.00   -nan(ind)  -nan(ind)  -nan(ind)  -nan(ind)  -nan(ind)  -nan(ind)  -nan(ind)  -nan(ind)  -nan(ind)
  CDT-31                  1.00   -nan(ind)  -nan(ind)  -nan(ind)  -nan(ind)  -nan(ind)  -nan(ind)  -nan(ind)  -nan(ind)  -nan(ind)
  CDT-35                  1.00   -nan(ind)  -nan(ind)  -nan(ind)  -nan(ind)  -nan(ind)  -nan(ind)  -nan(ind)  -nan(ind)  -nan(ind)
  CDT-37                  1.00   -nan(ind)  -nan(ind)  -nan(ind)  -nan(ind)  -nan(ind)  -nan(ind)  -nan(ind)  -nan(ind)  -nan(ind)
  CDT-39                  1.00   -nan(ind)  -nan(ind)  -nan(ind)  -nan(ind)  -nan(ind)  -nan(ind)  -nan(ind)  -nan(ind)  -nan(ind)
  CDT-43                  1.00   -nan(ind)  -nan(ind)  -nan(ind)  -nan(ind)  -nan(ind)  -nan(ind)  -nan(ind)  -nan(ind)  -nan(ind)
  CDT-47                  1.00   -nan(ind)  -nan(ind)  -nan(ind)  -nan(ind)  -nan(ind)  -nan(ind)  -nan(ind)  -nan(ind)  -nan(ind)
  CDT-51                  1.00   -nan(ind)  -nan(ind)  -nan(ind)  -nan(ind)  -nan(ind)  -nan(ind)  -nan(ind)  -nan(ind)  -nan(ind)
  CDT-55                  1.00   -nan(ind)  -nan(ind)  -nan(ind)  -nan(ind)  -nan(ind)  -nan(ind)  -nan(ind)  -nan(ind)  -nan(ind)
  CDT-59                  1.00   -nan(ind)  -nan(ind)  -nan(ind)  -nan(ind)  -nan(ind)  -nan(ind)  -nan(ind)  -nan(ind)  -nan(ind)
  CDT-61                  1.00   -nan(ind)  -nan(ind)  -nan(ind)  -nan(ind)  -nan(ind)  -nan(ind)  -nan(ind)  -nan(ind)  -nan(ind)
  CDT-65                  1.00   -nan(ind)  -nan(ind)  -nan(ind)  -nan(ind)  -nan(ind)  -nan(ind)  -nan(ind)  -nan(ind)  -nan(ind)
  CDT-71                  1.00   -nan(ind)  -nan(ind)  -nan(ind)  -nan(ind)  -nan(ind)  -nan(ind)  -nan(ind)  -nan(ind)  -nan(ind)
  CDT-93                  1.00   -nan(ind)  -nan(ind)  -nan(ind)  -nan(ind)  -nan(ind)  -nan(ind)  -nan(ind)  -nan(ind)  -nan(ind)
  CDT-95                  1.52   -nan(ind)  -nan(ind)  -nan(ind)  -nan(ind)  -nan(ind)  -nan(ind)  -nan(ind)  -nan(ind)  -nan(ind)
  CDT-97                  1.00   -nan(ind)  -nan(ind)  -nan(ind)  -nan(ind)  -nan(ind)  -nan(ind)  -nan(ind)  -nan(ind)  -nan(ind)
  CDT-99                  3.50   -nan(ind)  -nan(ind)  -nan(ind)  -nan(ind)  -nan(ind)  -nan(ind)  -nan(ind)  -nan(ind)  -nan(ind)
  CRWAY_N_84TH_CULV       1.00   -nan(ind)  -nan(ind)  -nan(ind)  -nan(ind)  -nan(ind)  -nan(ind)  -nan(ind)  -nan(ind)  -nan(ind)
  DRIVE_ON_RDGLND_LP_CULV    1.25   -nan(ind)  -nan(ind)  -nan(ind)  -nan(ind)  -nan(ind)  -nan(ind)  -nan(ind)  -nan(ind)  -nan(ind)
  E_PROP_LINE_NRE_DETBASIN_CULV    1.81   -nan(ind)  -nan(ind)  -nan(ind)  -nan(ind)  -nan(ind)  -nan(ind)  -nan(ind)  -nan(ind)  -nan(ind)
  E_PROP_LINE_NRE_DETBASIN_CULV2    1.29   -nan(ind)  -nan(ind)  -nan(ind)  -nan(ind)  -nan(ind)  -nan(ind)  -nan(ind)  -nan(ind)  -nan(ind)
  FENNEL_N_84TH_CULV      1.00   -nan(ind)  -nan(ind)  -nan(ind)  -nan(ind)  -nan(ind)  -nan(ind)  -nan(ind)  -nan(ind)  -nan(ind)
  INLINE_NRE_DETBASIN_CULV    1.00   -nan(ind)  -nan(ind)  -nan(ind)  -nan(ind)  -nan(ind)  -nan(ind)  -nan(ind)  -nan(ind)  -nan(ind)
  INLINE_NRE_DETBASIN_CULV2    1.00   -nan(ind)  -nan(ind)  -nan(ind)  -nan(ind)  -nan(ind)  -nan(ind)  -nan(ind)  -nan(ind)  -nan(ind)
  LINK1063                1.00   -nan(ind)  -nan(ind)  -nan(ind)  -nan(ind)  -nan(ind)  -nan(ind)  -nan(ind)  -nan(ind)  -nan(ind)
  LINK54                  1.00   -nan(ind)  -nan(ind)  -nan(ind)  -nan(ind)  -nan(ind)  -nan(ind)  -nan(ind)  -nan(ind)  -nan(ind)
  LINK56                  1.00   -nan(ind)  -nan(ind)  -nan(ind)  -nan(ind)  -nan(ind)  -nan(ind)  -nan(ind)  -nan(ind)  -nan(ind)
  LINK60                  1.00   -nan(ind)  -nan(ind)  -nan(ind)  -nan(ind)  -nan(ind)  -nan(ind)  -nan(ind)  -nan(ind)  -nan(ind)
  LINK62                  1.00   -nan(ind)  -nan(ind)  -nan(ind)  -nan(ind)  -nan(ind)  -nan(ind)  -nan(ind)  -nan(ind)  -nan(ind)
  LINK62.1                1.00   -nan(ind)  -nan(ind)  -nan(ind)  -nan(ind)  -nan(ind)  -nan(ind)  -nan(ind)  -nan(ind)  -nan(ind)
  LINK62.1.1              1.00   -nan(ind)  -nan(ind)  -nan(ind)  -nan(ind)  -nan(ind)  -nan(ind)  -nan(ind)  -nan(ind)  -nan(ind)
  LINK62.2                1.00   -nan(ind)  -nan(ind)  -nan(ind)  -nan(ind)  -nan(ind)  -nan(ind)  -nan(ind)  -nan(ind)  -nan(ind)
  LINK63                  1.00   -nan(ind)  -nan(ind)  -nan(ind)  -nan(ind)  -nan(ind)  -nan(ind)  -nan(ind)  -nan(ind)  -nan(ind)
  LINK63.1                1.00   -nan(ind)  -nan(ind)  -nan(ind)  -nan(ind)  -nan(ind)  -nan(ind)  -nan(ind)  -nan(ind)  -nan(ind)
  LINK63.1.1              1.00   -nan(ind)  -nan(ind)  -nan(ind)  -nan(ind)  -nan(ind)  -nan(ind)  -nan(ind)  -nan(ind)  -nan(ind)
  LINK63.1.2              1.00   -nan(ind)  -nan(ind)  -nan(ind)  -nan(ind)  -nan(ind)  -nan(ind)  -nan(ind)  -nan(ind)  -nan(ind)
  LINK63.2                1.00   -nan(ind)  -nan(ind)  -nan(ind)  -nan(ind)  -nan(ind)  -nan(ind)  -nan(ind)  -nan(ind)  -nan(ind)
  LINK63.2.1              1.00   -nan(ind)  -nan(ind)  -nan(ind)  -nan(ind)  -nan(ind)  -nan(ind)  -nan(ind)  -nan(ind)  -nan(ind)
  LINK63.3                1.00   -nan(ind)  -nan(ind)  -nan(ind)  -nan(ind)  -nan(ind)  -nan(ind)  -nan(ind)  -nan(ind)  -nan(ind)
  LINK65                  1.00   -nan(ind)  -nan(ind)  -nan(ind)  -nan(ind)  -nan(ind)  -nan(ind)  -nan(ind)  -nan(ind)  -nan(ind)
  LINK65.1                1.85   -nan(ind)  -nan(ind)  -nan(ind)  -nan(ind)  -nan(ind)  -nan(ind)  -nan(ind)  -nan(ind)  -nan(ind)
  LINK67                  1.00   -nan(ind)  -nan(ind)  -nan(ind)  -nan(ind)  -nan(ind)  -nan(ind)  -nan(ind)  -nan(ind)  -nan(ind)
  LINK67.1                1.00   -nan(ind)  -nan(ind)  -nan(ind)  -nan(ind)  -nan(ind)  -nan(ind)  -nan(ind)  -nan(ind)  -nan(ind)
  LINK67.1.1              1.00   -nan(ind)  -nan(ind)  -nan(ind)  -nan(ind)  -nan(ind)  -nan(ind)  -nan(ind)  -nan(ind)  -nan(ind)
  LINK67.2                1.00   -nan(ind)  -nan(ind)  -nan(ind)  -nan(ind)  -nan(ind)  -nan(ind)  -nan(ind)  -nan(ind)  -nan(ind)
  LINK70                  1.00   -nan(ind)  -nan(ind)  -nan(ind)  -nan(ind)  -nan(ind)  -nan(ind)  -nan(ind)  -nan(ind)  -nan(ind)
  LINK71                  1.00   -nan(ind)  -nan(ind)  -nan(ind)  -nan(ind)  -nan(ind)  -nan(ind)  -nan(ind)  -nan(ind)  -nan(ind)
  LINK73                  1.00   -nan(ind)  -nan(ind)  -nan(ind)  -nan(ind)  -nan(ind)  -nan(ind)  -nan(ind)  -nan(ind)  -nan(ind)
  LINK76                  1.00   -nan(ind)  -nan(ind)  -nan(ind)  -nan(ind)  -nan(ind)  -nan(ind)  -nan(ind)  -nan(ind)  -nan(ind)
  LINK78                  1.00   -nan(ind)  -nan(ind)  -nan(ind)  -nan(ind)  -nan(ind)  -nan(ind)  -nan(ind)  -nan(ind)  -nan(ind)
  NORTHWOOD_CENT_NRE_DETBASIN_CULV    1.00   -nan(ind)  -nan(ind)  -nan(ind)  -nan(ind)  -nan(ind)  -nan(ind)  -nan(ind)  -nan(ind)  -nan(ind)
  NORTHWOOD_CEN_NRE_DETBASIN_CULV2    1.00   -nan(ind)  -nan(ind)  -nan(ind)  -nan(ind)  -nan(ind)  -nan(ind)  -nan(ind)  -nan(ind)  -nan(ind)
  NORTHWOOD_S_NRE_DETBASIN_CULV    1.18   -nan(ind)  -nan(ind)  -nan(ind)  -nan(ind)  -nan(ind)  -nan(ind)  -nan(ind)  -nan(ind)  -nan(ind)
  NWOOD_N_NRE_DETBASIN_CULV    1.00   -nan(ind)  -nan(ind)  -nan(ind)  -nan(ind)  -nan(ind)  -nan(ind)  -nan(ind)  -nan(ind)  -nan(ind)
  PARKSIDE_NRE_DETBASIN_CULV    1.00   -nan(ind)  -nan(ind)  -nan(ind)  -nan(ind)  -nan(ind)  -nan(ind)  -nan(ind)  -nan(ind)  -nan(ind)
  PARKSIDE_NRE_DETBASIN_CULV2    1.00   -nan(ind)  -nan(ind)  -nan(ind)  -nan(ind)  -nan(ind)  -nan(ind)  -nan(ind)  -nan(ind)  -nan(ind)
  PRIVATE_DRIVE_S_79TH_CULV    3.34   -nan(ind)  -nan(ind)  -nan(ind)  -nan(ind)  -nan(ind)  -nan(ind)  -nan(ind)  -nan(ind)  -nan(ind)
  PRIVATE_DR_N_79TH_1_CULV    1.50   -nan(ind)  -nan(ind)  -nan(ind)  -nan(ind)  -nan(ind)  -nan(ind)  -nan(ind)  -nan(ind)  -nan(ind)
  PRIVATE_DR_N_OF_79TH_2_CULV    3.92   -nan(ind)  -nan(ind)  -nan(ind)  -nan(ind)  -nan(ind)  -nan(ind)  -nan(ind)  -nan(ind)  -nan(ind)
  PRIVATE_DR_N_OF_79TH_2_CULV2    2.98   -nan(ind)  -nan(ind)  -nan(ind)  -nan(ind)  -nan(ind)  -nan(ind)  -nan(ind)  -nan(ind)  -nan(ind)
  PRIVATE_DR_S_79TH_2_CULV    2.86   -nan(ind)  -nan(ind)  -nan(ind)  -nan(ind)  -nan(ind)  -nan(ind)  -nan(ind)  -nan(ind)  -nan(ind)
  RDGLND_LP_E_WASH_CULV    1.00   -nan(ind)  -nan(ind)  -nan(ind)  -nan(ind)  -nan(ind)  -nan(ind)  -nan(ind)  -nan(ind)  -nan(ind)
  RIDGELAND_N_84TH_CULV    1.11   -nan(ind)  -nan(ind)  -nan(ind)  -nan(ind)  -nan(ind)  -nan(ind)  -nan(ind)  -nan(ind)  -nan(ind)
  RIDGELAND_N_NRE_DETBASIN_CULV    1.13   -nan(ind)  -nan(ind)  -nan(ind)  -nan(ind)  -nan(ind)  -nan(ind)  -nan(ind)  -nan(ind)  -nan(ind)
  RIDGELAND_S_84TH_CULV    1.30   -nan(ind)  -nan(ind)  -nan(ind)  -nan(ind)  -nan(ind)  -nan(ind)  -nan(ind)  -nan(ind)  -nan(ind)
  RIDGELAND_S_NRE_DETBASIN_CULV    1.00   -nan(ind)  -nan(ind)  -nan(ind)  -nan(ind)  -nan(ind)  -nan(ind)  -nan(ind)  -nan(ind)  -nan(ind)
  RIDGELAND_S_NRE_DETBASIN_CULV2    1.00   -nan(ind)  -nan(ind)  -nan(ind)  -nan(ind)  -nan(ind)  -nan(ind)  -nan(ind)  -nan(ind)  -nan(ind)
  SNFLWR_SAGE_CULV        1.00   -nan(ind)  -nan(ind)  -nan(ind)  -nan(ind)  -nan(ind)  -nan(ind)  -nan(ind)  -nan(ind)  -nan(ind)
  SNFLWR_W_CRWAY_CULV     1.43   -nan(ind)  -nan(ind)  -nan(ind)  -nan(ind)  -nan(ind)  -nan(ind)  -nan(ind)  -nan(ind)  -nan(ind)
  SNFLWR_W_SAGE_CULV      1.28   -nan(ind)  -nan(ind)  -nan(ind)  -nan(ind)  -nan(ind)  -nan(ind)  -nan(ind)  -nan(ind)  -nan(ind)
  USH83_MAIN_CULV         1.00   -nan(ind)  -nan(ind)  -nan(ind)  -nan(ind)  -nan(ind)  -nan(ind)  -nan(ind)  -nan(ind)  -nan(ind)
  USH83_NE_79TH_CULV      1.00   -nan(ind)  -nan(ind)  -nan(ind)  -nan(ind)  -nan(ind)  -nan(ind)  -nan(ind)  -nan(ind)  -nan(ind)
  USH83_N_11TH_CULV       1.00   -nan(ind)  -nan(ind)  -nan(ind)  -nan(ind)  -nan(ind)  -nan(ind)  -nan(ind)  -nan(ind)  -nan(ind)
  USH83_N_1804_CULV       1.00   -nan(ind)  -nan(ind)  -nan(ind)  -nan(ind)  -nan(ind)  -nan(ind)  -nan(ind)  -nan(ind)  -nan(ind)
  WAH_N_RDGLND_LP_CULV    1.00   -nan(ind)  -nan(ind)  -nan(ind)  -nan(ind)  -nan(ind)  -nan(ind)  -nan(ind)  -nan(ind)  -nan(ind)
  WASH_N_1804_CULV        1.00   -nan(ind)  -nan(ind)  -nan(ind)  -nan(ind)  -nan(ind)  -nan(ind)  -nan(ind)  -nan(ind)  -nan(ind)
  WASH_S_1804_CULV        1.47   -nan(ind)  -nan(ind)  -nan(ind)  -nan(ind)  -nan(ind)  -nan(ind)  -nan(ind)  -nan(ind)  -nan(ind)
  
  
  *************************
  Conduit Surcharge Summary
  *************************
  
  No conduits were surcharged.
  

  Analysis begun on:  Sat Nov 30 08:11:41 2019
  Analysis ended on:  Sat Nov 30 08:11:41 2019
  Total elapsed time: < 1 sec