
  EPA STORM WATER MANAGEMENT MODEL - VERSION 5.1 (Build 5.1.013)
  --------------------------------------------------------------

    Model #9 from the Sim RU IDS(High) 090728.xls RDII sheds removed for k3-li 
   ne timeseries input at MB 1 MBE 5 MSH 1 07/27/2009 Mastersheet with Pipe St 
  #SWMM4_RAINFALL   Reads a SWMM Rainfall.txt File 
  
  WARNING 04: minimum elevation drop used for Conduit 1
  WARNING 08: elevation drop exceeds length for Conduit 9
  WARNING 04: minimum elevation drop used for Conduit 12
  WARNING 04: minimum elevation drop used for Conduit 17
  WARNING 04: minimum elevation drop used for Conduit 31
  WARNING 04: minimum elevation drop used for Conduit 32
  WARNING 08: elevation drop exceeds length for Conduit 50
  WARNING 08: elevation drop exceeds length for Conduit 52
  WARNING 04: minimum elevation drop used for Conduit AccessRoadBRDGE
  WARNING 04: minimum elevation drop used for Conduit AshburnDr
  WARNING 04: minimum elevation drop used for Conduit BarryDrBridge
  WARNING 04: minimum elevation drop used for Conduit BLPostRdBRDGE
  WARNING 04: minimum elevation drop used for Conduit BL-WalkingBridge
  WARNING 04: minimum elevation drop used for Conduit LPostRdBRDGE
  WARNING 04: minimum elevation drop used for Conduit LWCAshburnDr
  WARNING 04: minimum elevation drop used for Conduit LWCMarshallRDBRDGE
  WARNING 04: minimum elevation drop used for Conduit LWCPrattAveWalkingBRDGE
  WARNING 04: minimum elevation drop used for Conduit P30029
  WARNING 04: minimum elevation drop used for Conduit P30033
  WARNING 04: minimum elevation drop used for Conduit P30034
  WARNING 04: minimum elevation drop used for Conduit P40027
  WARNING 04: minimum elevation drop used for Conduit P40031
  WARNING 04: minimum elevation drop used for Conduit P40041
  WARNING 04: minimum elevation drop used for Conduit P40136
  WARNING 04: minimum elevation drop used for Conduit P40259
  WARNING 04: minimum elevation drop used for Conduit P40265
  WARNING 08: elevation drop exceeds length for Conduit P40270
  WARNING 04: minimum elevation drop used for Conduit R24405
  WARNING 04: minimum elevation drop used for Conduit R25815
  WARNING 04: minimum elevation drop used for Conduit R26220
  WARNING 04: minimum elevation drop used for Conduit R29230
  WARNING 04: minimum elevation drop used for Conduit R4264
  WARNING 04: minimum elevation drop used for Conduit RBL4054
  WARNING 04: minimum elevation drop used for Conduit RBL4264
  WARNING 04: minimum elevation drop used for Conduit RBridge24820
  WARNING 04: minimum elevation drop used for Conduit RBridgeHighSt
  WARNING 04: minimum elevation drop used for Conduit RBridgeHighSt24234
  WARNING 04: minimum elevation drop used for Conduit RBridgeOR
  WARNING 04: minimum elevation drop used for Conduit RL163.2
  WARNING 04: minimum elevation drop used for Conduit RL3232
  WARNING 04: minimum elevation drop used for Conduit RL3896
  WARNING 04: minimum elevation drop used for Conduit RL4054
  WARNING 04: minimum elevation drop used for Conduit RR224.15
  
  *************
  Element Count
  *************
  Number of rain gages ...... 1
  Number of subcatchments ... 226
  Number of nodes ........... 432
  Number of links ........... 434
  Number of pollutants ...... 0
  Number of land uses ....... 0
  
  
  ****************
  Raingage Summary
  ****************
                                                      Data       Recording
  Name                 Data Source                    Type       Interval 
  ------------------------------------------------------------------------
  GAGE1                RG_10IDF.txt                  
  
  
  ********************
  Subcatchment Summary
  ********************
  Name                       Area     Width   %Imperv    %Slope Rain Gage            Outlet              
  -----------------------------------------------------------------------------------------------------------
  331                      347.17   4688.00      0.00    4.8800 GAGE1                L2757               
  332                      214.50   2140.49      0.00    4.8800 GAGE1                LJ152.5             
  334                        1.22    123.52      0.00    4.2100 GAGE1                L3896               
  335                        9.79    542.36      0.00    4.3600 GAGE1                LP4264              
  336                        0.39     70.19      0.00    2.6100 GAGE1                LP4264              
  337                       48.23   1024.50      0.00    2.7200 GAGE1                LP4264              
  338                      434.24   2460.00      0.00    3.6300 GAGE1                D20000              
  339                        0.45     66.42      0.00    3.2500 GAGE1                D10002              
  340                       31.25    682.38      0.00    2.8800 GAGE1                D20000              
  341                       23.62    493.74      0.00    2.8000 GAGE1                D20000              
  342                      663.93   3263.11      0.00    4.7500 GAGE1                LR225.1             
  343                       88.38   1529.53      0.00    2.1200 GAGE1                D20000              
  344                       29.29    617.66      0.00    3.0000 GAGE1                L24405              
  345                        0.39     19.23      0.00    2.5500 GAGE1                L24405              
  346                       53.52   1021.84      0.00    2.9900 GAGE1                L24820-PomfretSt    
  347                        2.12     88.11      0.00    2.6700 GAGE1                L24820-PomfretSt    
  348                        2.14    143.15      0.00    0.2400 GAGE1                I30035              
  349                        0.35     22.08      0.00    0.5900 GAGE1                I30031              
  350                        1.15    142.19      0.00    2.2200 GAGE1                I30030              
  351                        0.53     87.52      0.00    3.4900 GAGE1                I30030              
  352                        0.41     27.50      0.00    0.3200 GAGE1                I30033              
  353                        6.05    202.70      0.00    2.2600 GAGE1                L25815              
  354                        0.97     38.34      0.00    0.0900 GAGE1                L25815              
  355                        3.51    141.32      0.00    0.0200 GAGE1                L25815              
  356                        2.46    209.69      0.00    1.4400 GAGE1                I30028              
  357                        0.68     73.42      0.00    3.2800 GAGE1                I30029              
  358                        0.75     41.39      0.00    2.7800 GAGE1                D30000              
  359                        3.46    134.95      0.00    0.8400 GAGE1                D30000              
  360                        3.21     99.29      0.00    3.4200 GAGE1                I40242              
  361                        1.19     44.31      0.00    0.5800 GAGE1                I40242              
  362                        0.52    114.76      0.00    1.9200 GAGE1                I30025              
  363                        2.55    204.92      0.00    2.6300 GAGE1                I30039              
  364                     5299.42  10206.06      0.00    7.3900 GAGE1                L31950              
  365                        0.47     23.50      0.00    0.2400 GAGE1                L25815              
  366                        0.68    103.80      0.00    3.0200 GAGE1                I30026              
  367                        4.10    305.85      0.00    2.6800 GAGE1                I30023              
  368                       11.32    472.79      0.00    3.6100 GAGE1                I30038              
  369                        1.31    129.32      0.00    2.6200 GAGE1                I30038              
  370                        0.72     89.77      0.00    1.1200 GAGE1                2                   
  371                        1.48    134.36      0.00    2.6800 GAGE1                2                   
  372                        1.28    118.73      0.00    3.1600 GAGE1                I30020              
  373                        0.71    134.25      0.00    3.2500 GAGE1                I30019              
  374                        3.99    198.47      0.00    3.7200 GAGE1                2                   
  375                        0.75     80.81      0.00    1.3800 GAGE1                2                   
  376                        4.11    310.83      0.00    3.3300 GAGE1                I30040              
  377                        1.91    127.87      0.00    3.4200 GAGE1                I30040              
  378                        2.84    251.63      0.00    2.9500 GAGE1                1                   
  379                        0.36     42.77      0.00    3.3700 GAGE1                1                   
  380                        0.83     94.89      0.00    3.1800 GAGE1                I30018              
  381                        0.44     62.02      0.00    2.7800 GAGE1                I30017              
  382                        0.97    101.05      0.00    2.9900 GAGE1                I30016              
  383                        0.04     28.33      0.00    2.1900 GAGE1                I30016              
  384                        3.87    183.65      0.00    2.7900 GAGE1                I30014              
  385                        4.67    330.19      0.00    3.9600 GAGE1                I30011              
  386                        2.05    202.79      0.00    2.3300 GAGE1                I40184              
  387                        0.10     39.28      0.00    4.8500 GAGE1                1                   
  388                       13.79    594.31      0.00    3.1000 GAGE1                I30008              
  389                        0.88    132.13      0.00    3.1500 GAGE1                I30012              
  390                        3.51    181.50      0.00    2.3900 GAGE1                D40000              
  391                        3.56    219.30      0.00    2.4100 GAGE1                1                   
  392                        7.59    280.72      0.00    3.8400 GAGE1                I40185              
  393                        4.58    272.54      0.00    4.0600 GAGE1                I40187              
  394                        0.98     93.03      0.00    4.0300 GAGE1                I30006              
  395                        4.65    300.18      0.00    3.2500 GAGE1                I30009              
  396                        0.00     10.00      0.00    0.0000 GAGE1                I40184              
  397                        2.63    143.41      0.00    3.0100 GAGE1                I40184              
  398                        2.41    203.49      0.00    3.3900 GAGE1                I40181              
  399                        1.24    152.26      0.00    0.8800 GAGE1                I40180              
  400                        0.70     94.20      0.00    1.7600 GAGE1                I40179              
  401                        1.16    152.55      0.00    2.6600 GAGE1                I40178              
  402                        1.50    117.10      0.00    2.3400 GAGE1                I40177              
  403                        0.62    100.27      0.00    2.2400 GAGE1                I40127              
  404                        0.70    102.59      0.00    1.6300 GAGE1                I40119              
  405                        0.15     46.81      0.00    3.0700 GAGE1                I40126              
  406                        7.28    433.97      0.00    2.8500 GAGE1                I40124              
  407                        0.82    104.85      0.00    3.3200 GAGE1                I40125              
  408                        4.29    217.24      0.00    4.5200 GAGE1                I40177              
  409                        0.42     89.90      0.00    2.6800 GAGE1                I40176              
  410                        3.75    209.41      0.00    5.1100 GAGE1                I40118              
  411                        1.46    125.68      0.00    1.4500 GAGE1                I40236              
  412                        3.08    233.56      0.00    3.6600 GAGE1                I30004              
  413                        1.60    134.75      0.00    3.9000 GAGE1                I30004              
  414                        1.88    164.04      0.00    5.0300 GAGE1                I40128              
  415                        8.28    296.06      0.00    5.2800 GAGE1                I40128              
  416                        1.56    118.62      0.00    3.5400 GAGE1                I30001              
  417                        0.45     79.03      0.00    2.7700 GAGE1                I30000              
  418                        1.27    109.90      0.00    2.3800 GAGE1                I40121              
  419                        0.08     35.45      0.00    1.2000 GAGE1                I40121              
  420                        0.01     15.00      0.00    0.1000 GAGE1                I40121              
  421                        0.26     73.23      0.00    3.7700 GAGE1                I40121              
  422                       19.09    557.84      0.00    3.3700 GAGE1                I40121              
  423                       12.97    368.13      0.00    3.8700 GAGE1                I40121              
  424                        2.40    222.38      0.00    1.7400 GAGE1                I40115              
  425                        9.48    326.45      0.00    3.6800 GAGE1                I40097              
  426                        5.96    392.01      0.00    4.9700 GAGE1                I40091              
  427                        0.37     92.21      0.00    3.6600 GAGE1                I40121              
  428                        3.20    238.25      0.00    5.6000 GAGE1                I40106              
  429                        0.33     39.29      0.00    2.8300 GAGE1                I40107              
  430                        0.51     59.94      0.00    3.0400 GAGE1                I40098              
  431                        5.72    267.61      0.00    3.8100 GAGE1                I40101              
  432                        0.17     59.60      0.00    5.8900 GAGE1                I40090              
  433                        8.47    457.43      0.00    4.7300 GAGE1                I40090              
  434                        0.38    107.35      0.00    6.9400 GAGE1                I40092              
  435                        6.12    325.99      0.00    6.9000 GAGE1                I40082              
  436                        2.58    150.21      0.00    4.5400 GAGE1                I40089              
  437                        0.97    131.96      0.00    4.5300 GAGE1                I40092              
  438                       22.46    467.69      0.00    5.9300 GAGE1                I40088              
  439                        3.90    214.67      0.00    3.6500 GAGE1                I40075              
  440                        0.36     88.34      0.00    3.1300 GAGE1                I40077              
  441                        2.46    299.77      0.00    3.6700 GAGE1                I40083              
  442                        0.89    123.65      0.00    1.9800 GAGE1                I40240              
  443                        2.30    186.61      0.00    3.2300 GAGE1                I40032              
  444                        4.84    298.97      0.00    4.0200 GAGE1                I40029              
  445                        0.47     53.64      0.00    0.7800 GAGE1                I40141              
  446                        0.96     90.16      0.00    2.4200 GAGE1                I40086              
  447                        2.02    190.33      0.00    5.1300 GAGE1                I40086              
  448                       56.42    839.58      0.00    6.7200 GAGE1                I40086              
  449                        0.59     50.44      0.00    5.0500 GAGE1                I40139              
  450                        4.47    223.61      0.00    4.0400 GAGE1                I40138              
  451                        2.66    211.89      0.00    3.4500 GAGE1                I40073              
  452                        0.24     67.23      0.00    2.7900 GAGE1                I40073              
  453                        2.01    179.21      0.00    5.2500 GAGE1                I40132              
  454                        3.81    265.19      0.00    5.0400 GAGE1                I40133              
  455                        5.37    211.46      0.00    4.7500 GAGE1                I40136              
  456                        0.67     51.90      0.00    2.9200 GAGE1                I40135              
  457                        4.44    315.22      0.00    3.5500 GAGE1                I40068              
  458                        6.15    283.83      0.00    2.8100 GAGE1                I40070              
  459                        0.43     82.50      0.00    3.2100 GAGE1                I40076              
  460                       10.70    544.00      0.00    2.7000 GAGE1                I40023              
  461                        0.49    103.95      0.00    5.2100 GAGE1                I40034              
  462                        0.81    124.57      0.00    5.7700 GAGE1                I40034              
  463                        6.77    380.36      0.00    3.6000 GAGE1                I40042              
  464                        1.14    135.00      0.00    4.5500 GAGE1                I40033              
  465                        6.33    299.54      0.00    3.6100 GAGE1                I40065              
  466                        4.17    274.12      0.00    3.6000 GAGE1                I40065              
  467                        8.33    397.06      0.00    3.6500 GAGE1                I40020              
  468                        1.13    124.92      0.00    2.5200 GAGE1                I40019              
  469                        4.32    259.92      0.00    2.8700 GAGE1                I40039              
  470                        4.36    212.46      0.00    3.0000 GAGE1                I40037              
  471                        1.79    194.80      0.00    2.3800 GAGE1                I40060              
  472                        6.13    396.71      0.00    3.6900 GAGE1                I40062              
  473                        0.96    128.72      0.00    2.7600 GAGE1                I40023              
  474                       25.32    837.20      0.00    3.8300 GAGE1                I40019              
  475                        4.33    253.39      0.00    2.6200 GAGE1                I40009              
  476                        1.32    145.89      0.00    2.6400 GAGE1                I40020              
  477                        3.83    273.25      0.00    4.7100 GAGE1                I40042              
  478                        0.53    116.64      0.00    5.6000 GAGE1                I40043              
  479                        7.48    430.15      0.00    2.5100 GAGE1                I40060              
  480                        5.51    285.46      0.00    3.2000 GAGE1                I40056              
  481                        1.17    168.06      0.00    4.2900 GAGE1                I40045              
  482                        1.04    149.95      0.00    4.9800 GAGE1                I40049              
  483                     1120.24   3579.68      0.00    4.6500 GAGE1                I40043              
  484                        2.44     78.05      0.00   10.5600 GAGE1                I40043              
  485                        2.84    206.97      0.00    5.9400 GAGE1                I40043              
  486                        0.16     52.21      0.00    1.6300 GAGE1                I40008              
  487                        5.82    387.02      0.00    4.9700 GAGE1                I40008              
  488                        4.54    339.48      0.00    2.6000 GAGE1                M40022              
  489                        1.61    179.77      0.00    2.4400 GAGE1                I40046              
  490                        6.04    264.60      0.00    2.7800 GAGE1                I40050              
  491                        4.15    290.68      0.00    3.8300 GAGE1                I40052              
  492                        1.35    110.22      0.00    3.8500 GAGE1                I40012              
  493                        3.17    207.82      0.00    3.9400 GAGE1                I40005              
  494                        0.13     37.37      0.00    1.9600 GAGE1                I40225              
  495                        0.22     66.37      0.00    2.3200 GAGE1                I40226              
  496                        1.98    181.78      0.00    4.9100 GAGE1                I40142              
  497                        7.55    333.49      0.00    3.5200 GAGE1                I40053              
  498                       13.30    470.11      0.00    5.8700 GAGE1                I40226              
  499                        0.51     88.95      0.00    2.8700 GAGE1                I40226              
  500                        2.27    227.57      0.00    2.8900 GAGE1                I40016              
  501                        1.13    116.77      0.00    2.9500 GAGE1                I40014              
  502                        6.04    376.63      0.00    3.2800 GAGE1                I40224              
  503                        2.84    232.03      0.00    9.0000 GAGE1                I40224              
  504                        0.05     40.86      0.00    5.0100 GAGE1                I40007              
  505                        7.60    365.30      0.00    3.0400 GAGE1                I40004              
  506                       15.71    406.05      0.00    6.1100 GAGE1                I40006              
  507                        3.72    349.56      0.00    3.0800 GAGE1                I40006              
  508                        1.40    197.74      0.00    2.8600 GAGE1                I40016              
  509                        0.54     91.08      0.00    1.9600 GAGE1                I40016              
  510                        0.85    114.85      0.00    4.0000 GAGE1                I40143              
  511                        4.24    398.36      0.00    4.4000 GAGE1                I40145              
  512                        0.51     61.80      0.00    5.2400 GAGE1                I40000              
  513                        9.75    449.95      0.00    5.9200 GAGE1                I40002              
  514                        1.40    199.63      0.00    6.4600 GAGE1                I40003              
  515                      290.36   1905.51      0.00    3.7500 GAGE1                I40166              
  516                        2.12    172.05      0.00    6.1700 GAGE1                I40168              
  517                        0.24     50.38      0.00    2.7400 GAGE1                I40149              
  518                        5.29    247.34      0.00    3.2100 GAGE1                I40148              
  519                        5.57    264.12      0.00    3.0500 GAGE1                I40151              
  520                        3.85    265.57      0.00    4.1300 GAGE1                I40153              
  521                        0.63     85.46      0.00    9.6200 GAGE1                I40197              
  522                       11.20    518.67      0.00    8.5300 GAGE1                I40201              
  523                        0.79     91.82      0.00    8.4700 GAGE1                I40206              
  524                        2.85    280.95      0.00    6.8000 GAGE1                I40241              
  525                        4.76    379.82      0.00    3.2100 GAGE1                I40168              
  526                        3.15    213.70      0.00    2.7900 GAGE1                I40167              
  527                        0.34     86.48      0.00    3.2100 GAGE1                I40213              
  528                        3.94    296.42      0.00    7.3600 GAGE1                I40207              
  529                        0.72     85.82      0.00    7.8800 GAGE1                I40011              
  530                        2.92    288.86      0.00    6.1200 GAGE1                I40210              
  531                       13.27    472.91      0.00    3.8500 GAGE1                I40169              
  532                        1.70    132.57      0.00    4.2900 GAGE1                I40172              
  533                        2.21    178.25      0.00    3.9300 GAGE1                I40160              
  534                        1.71    157.44      0.00    3.1900 GAGE1                I40173              
  535                        3.80    262.45      0.00    6.0900 GAGE1                I40216              
  536                        2.34    166.39      0.00    6.0500 GAGE1                I40194              
  537                        0.51    123.17      0.00    3.2000 GAGE1                I40158              
  538                        1.18    156.95      0.00    3.5400 GAGE1                I40157              
  539                        2.27    228.04      0.00    5.5100 GAGE1                I40172              
  540                        0.74    110.82      0.00    4.4200 GAGE1                I40171              
  541                        2.50    235.13      0.00    6.5800 GAGE1                I40220              
  542                        0.48    105.82      0.00    4.4900 GAGE1                I40221              
  543                        0.60    114.37      0.00    2.3300 GAGE1                I40155              
  544                        1.68    148.60      0.00    3.1600 GAGE1                I40154              
  545                        1.35    105.95      0.00    6.5800 GAGE1                I40189              
  546                        1.32    155.76      0.00    6.7200 GAGE1                I40190              
  547                       73.75    994.67      0.00    5.9200 GAGE1                I40254              
  548                        4.31    232.16      0.00    6.0200 GAGE1                I40222              
  549                        1.20    153.38      0.00    4.9200 GAGE1                I40229              
  550                        0.46    100.02      0.00    6.5900 GAGE1                I40233              
  551                        3.49    233.34      0.00    4.4900 GAGE1                I40235              
  552                       49.41    644.08      0.00    4.7600 GAGE1                I40235              
  553                        2.46    267.97      0.00    4.5300 GAGE1                I40228              
  554                        2.30    169.99      0.00    4.5300 GAGE1                I40223              
  560                        2.72    265.00      0.00    2.7000 GAGE1                I40026              
  348b                       0.00     30.00     25.00    0.2400 GAGE1                I30032              
  348c                       0.00     30.00      0.00    0.2400 GAGE1                I30034              
  
  
  ************
  Node Summary
  ************
                                           Invert      Max.    Ponded    External
  Name                 Type                 Elev.     Depth      Area    Inflow  
  -------------------------------------------------------------------------------
  I30000               JUNCTION            470.68      1.50       0.0
  I30001               JUNCTION            469.93      1.50       0.0
  I30002               JUNCTION            469.90      1.83       0.0
  I30003               JUNCTION            469.75      1.83       0.0
  I30004               JUNCTION            466.98      1.50       0.0
  I30005               JUNCTION            463.47      1.83       0.0
  I30006               JUNCTION            460.13      1.50       0.0
  I30007               JUNCTION            459.79      1.83       0.0
  I30008               JUNCTION            459.09      2.42       0.0
  I30009               JUNCTION            459.74      1.50       0.0
  I30011               JUNCTION            453.71      1.50       0.0
  I30012               JUNCTION            453.29      2.42       0.0
  I30013               JUNCTION            450.15      2.42       0.0
  I30014               JUNCTION            451.59      1.50       0.0
  I30015               JUNCTION            451.54      1.83       0.0
  I30016               JUNCTION            450.27      2.42       0.0
  I30017               JUNCTION            454.83      1.83       0.0
  I30018               JUNCTION            449.36      1.83       0.0
  I30019               JUNCTION            449.96      1.83       0.0
  I30020               JUNCTION            449.17      1.83       0.0
  I30021               JUNCTION            451.40      1.83       0.0
  I30022               JUNCTION            451.38      1.83       0.0
  I30023               JUNCTION            449.38      1.83       0.0
  I30025               JUNCTION            448.93      1.83       0.0
  I30026               JUNCTION            448.53      1.83       0.0
  I30027               JUNCTION            449.22      1.50       0.0
  I30028               JUNCTION            448.77      1.83       0.0
  I30029               JUNCTION            448.26      1.83       0.0
  I30030               JUNCTION            447.98      1.83       0.0
  I30031               JUNCTION            447.95      1.83       0.0
  I30032               JUNCTION            448.25      1.50       0.0
  I30033               JUNCTION            447.55      1.83       0.0
  I30034               JUNCTION            448.11      1.50       0.0
  I30035               JUNCTION            447.65      1.50       0.0
  I30036               JUNCTION            447.92      1.83       0.0
  I30037               JUNCTION            453.96      1.83       0.0
  I30038               JUNCTION            453.74      1.83       0.0
  I30039               JUNCTION            464.12      1.83       0.0
  I30040               JUNCTION            456.09      1.83       0.0
  I30041               JUNCTION            455.90      1.83       0.0
  I30042               JUNCTION            456.07      1.83       0.0
  I30043               JUNCTION            456.69      1.83       0.0
  I30044               JUNCTION            456.79      1.83       0.0
  I30045               JUNCTION            457.00      1.83       0.0
  I30046               JUNCTION            456.72      1.83       0.0
  I30047               JUNCTION            456.22      1.83       0.0
  NJ30001              JUNCTION            448.93      1.83       0.0
  NJ30002              JUNCTION            447.55      1.50       0.0
  NJ30003              JUNCTION            447.55      1.50       0.0
  NJ30004              JUNCTION            445.52      1.83       0.0
  NJ30005              JUNCTION            458.90      2.42       0.0
  I30048               JUNCTION            445.38      1.83       0.0
  I40000               JUNCTION            468.38      1.50       0.0
  I40001               JUNCTION            468.38      1.50       0.0
  I40002               JUNCTION            466.22      3.00       0.0
  I40003               JUNCTION            466.63      3.00       0.0
  I40004               JUNCTION            469.02      1.50       0.0
  I40005               JUNCTION            464.25      3.58       0.0
  I40006               JUNCTION            465.47      3.58       0.0
  I40007               JUNCTION            465.10      3.58       0.0
  I40008               JUNCTION            466.18      1.83       0.0
  I40009               JUNCTION            466.08      1.83       0.0
  I40010               JUNCTION            463.27      3.58       0.0
  I40011               JUNCTION            463.29      3.58       0.0
  I40012               JUNCTION            467.39      2.42       0.0
  I40013               JUNCTION            471.16      2.42       0.0
  I40014               JUNCTION            474.45      2.42       0.0
  I40015               JUNCTION            475.41      2.42       0.0
  I40016               JUNCTION            475.82      1.83       0.0
  I40017               JUNCTION            464.40      1.83       0.0
  I40018               JUNCTION            462.42      3.00       0.0
  I40019               JUNCTION            463.85      1.83       0.0
  I40020               JUNCTION            461.70      3.00       0.0
  I40021               JUNCTION            463.53      1.83       0.0
  I40022               JUNCTION            461.58      3.00       0.0
  I40023               JUNCTION            463.48      1.83       0.0
  I40024               JUNCTION            461.37      3.00       0.0
  I40025               JUNCTION            463.41      3.00       0.0
  I40026               JUNCTION            460.89      3.00       0.0
  I40027               JUNCTION            466.17      1.83       0.0
  I40028               JUNCTION            460.78      3.00       0.0
  I40029               JUNCTION            459.15      3.00       0.0
  I40030               JUNCTION            465.38      1.83       0.0
  I40031               JUNCTION            458.51      3.00       0.0
  I40032               JUNCTION            462.88      1.83       0.0
  I40033               JUNCTION            473.40      1.83       0.0
  I40034               JUNCTION            471.98      1.83       0.0
  I40035               JUNCTION            472.16      1.83       0.0
  I40036               JUNCTION            461.92      3.00       0.0
  I40037               JUNCTION            462.19      3.00       0.0
  I40038               JUNCTION            462.20      3.00       0.0
  I40039               JUNCTION            462.69      3.00       0.0
  I40040               JUNCTION            462.58      3.00       0.0
  I40041               JUNCTION            467.62      1.83       0.0
  I40042               JUNCTION            469.61      1.83       0.0
  I40043               JUNCTION            465.63      3.58       0.0
  I40044               JUNCTION            471.96      1.83       0.0
  I40045               JUNCTION            464.36      3.58       0.0
  I40046               JUNCTION            470.22      1.83       0.0
  I40048               JUNCTION            467.64      3.58       0.0
  I40049               JUNCTION            467.42      3.58       0.0
  I40050               JUNCTION            474.36      1.83       0.0
  I40051               JUNCTION            468.62      3.58       0.0
  I40052               JUNCTION            469.14      3.58       0.0
  I40053               JUNCTION            475.17      1.83       0.0
  I40054               JUNCTION            476.13      1.83       0.0
  I40055               JUNCTION            469.57      3.58       0.0
  I40056               JUNCTION            474.07      1.50       0.0
  I40057               JUNCTION            473.93      1.50       0.0
  I40058               JUNCTION            473.19      1.50       0.0
  I40059               JUNCTION            473.74      1.50       0.0
  I40060               JUNCTION            473.78      1.50       0.0
  I40061               JUNCTION            472.17      1.50       0.0
  I40062               JUNCTION            472.36      1.50       0.0
  I40063               JUNCTION            470.63      1.50       0.0
  I40064               JUNCTION            472.20      1.50       0.0
  I40065               JUNCTION            471.86      1.83       0.0
  I40066               JUNCTION            471.19      1.83       0.0
  I40067               JUNCTION            470.30      3.00       0.0
  I40068               JUNCTION            468.90      3.00       0.0
  I40069               JUNCTION            468.71      2.42       0.0
  I40070               JUNCTION            468.50      3.00       0.0
  I40071               JUNCTION            467.46      3.00       0.0
  I40072               JUNCTION            468.35      1.50       0.0
  I40073               JUNCTION            466.41      3.58       0.0
  I40074               JUNCTION            467.44      1.50       0.0
  I40075               JUNCTION            465.45      3.58       0.0
  I40076               JUNCTION            465.33      4.17       0.0
  I40077               JUNCTION            460.00      4.17       0.0
  I40078               JUNCTION            462.23      1.50       0.0
  I40079               JUNCTION            461.30      1.83       0.0
  I40080               JUNCTION            458.45      3.50       0.0
  I40081               JUNCTION            458.14      3.50       0.0
  I40082               JUNCTION            457.92      1.50       0.0
  I40083               JUNCTION            459.84      1.83       0.0
  I40084               JUNCTION            456.65      3.50       0.0
  I40085               JUNCTION            459.77      1.83       0.0
  I40086               JUNCTION            456.10      4.50       0.0
  I40087               JUNCTION            457.15      1.83       0.0
  I40088               JUNCTION            454.64      5.42       0.0
  I40089               JUNCTION            457.08      1.83       0.0
  I40090               JUNCTION            456.43      1.83       0.0
  I40091               JUNCTION            456.09      1.83       0.0
  I40092               JUNCTION            453.82      5.42       0.0
  I40093               JUNCTION            455.13      2.50       0.0
  I40094               JUNCTION            451.47      5.42       0.0
  I40097               JUNCTION            464.98      1.25       0.0
  I40098               JUNCTION            463.03      1.25       0.0
  I40099               JUNCTION            460.52      2.50       0.0
  I40100               JUNCTION            461.76      1.50       0.0
  I40101               JUNCTION            463.55      1.50       0.0
  I40102               JUNCTION            462.18      1.50       0.0
  I40103               JUNCTION            462.68      1.50       0.0
  I40104               JUNCTION            473.24      1.00       0.0
  I40105               JUNCTION            474.49      1.00       0.0
  I40106               JUNCTION            474.97      1.00       0.0
  I40107               JUNCTION            457.61      1.00       0.0
  I40109               JUNCTION            456.76      2.00       0.0
  I40110               JUNCTION            454.66      2.50       0.0
  I40111               JUNCTION            452.55      2.50       0.0
  I40112               JUNCTION            450.66      4.83       0.0
  I40113               JUNCTION            450.79      4.83       0.0
  I40114               JUNCTION            450.38      4.00       0.0
  I40115               JUNCTION            450.78      4.00       0.0
  I40116               JUNCTION            448.62      4.00       0.0
  I40117               JUNCTION            450.46      4.00       0.0
  I40118               JUNCTION            450.63      4.00       0.0
  I40119               JUNCTION            457.13      1.50       0.0
  I40120               JUNCTION            457.28      1.50       0.0
  I40121               JUNCTION            457.46      1.50       0.0
  I40122               JUNCTION            454.91      1.50       0.0
  I40123               JUNCTION            455.11      1.50       0.0
  I40124               JUNCTION            454.97      1.50       0.0
  I40125               JUNCTION            453.60      1.25       0.0
  I40126               JUNCTION            453.10      1.25       0.0
  I40127               JUNCTION            450.61      6.00       0.0
  I40128               JUNCTION            454.41      1.25       0.0
  I40129               JUNCTION            454.77      1.25       0.0
  I40130               JUNCTION            455.28      1.25       0.0
  I40131               JUNCTION            466.21      1.83       0.0
  I40132               JUNCTION            460.15      3.00       0.0
  I40133               JUNCTION            463.64      1.83       0.0
  I40134               JUNCTION            458.69      3.00       0.0
  I40135               JUNCTION            464.71      1.83       0.0
  I40136               JUNCTION            465.07      1.50       0.0
  I40137               JUNCTION            464.51      2.00       0.0
  I40138               JUNCTION            461.65      1.83       0.0
  I40139               JUNCTION            460.84      2.00       0.0
  I40140               JUNCTION            462.09      1.83       0.0
  I40141               JUNCTION            460.22      2.00       0.0
  I40142               JUNCTION            477.57      1.83       0.0
  I40143               JUNCTION            471.08      3.58       0.0
  I40144               JUNCTION            471.40      3.58       0.0
  I40145               JUNCTION            471.55      3.00       0.0
  I40146               JUNCTION            478.53      1.83       0.0
  I40147               JUNCTION            478.14      1.83       0.0
  I40148               JUNCTION            482.16      1.50       0.0
  I40149               JUNCTION            481.32      1.50       0.0
  I40150               JUNCTION            480.24      1.50       0.0
  I40151               JUNCTION            480.86      1.50       0.0
  I40152               JUNCTION            487.57      1.50       0.0
  I40153               JUNCTION            477.84      2.50       0.0
  I40154               JUNCTION            492.48      1.50       0.0
  I40155               JUNCTION            492.54      1.50       0.0
  I40156               JUNCTION            492.40      1.50       0.0
  I40157               JUNCTION            489.46      1.50       0.0
  I40158               JUNCTION            485.46      1.50       0.0
  I40159               JUNCTION            490.29      1.50       0.0
  I40160               JUNCTION            485.83      2.50       0.0
  I40161               JUNCTION            480.24      2.00       0.0
  I40162               JUNCTION            480.40      2.00       0.0
  I40164               JUNCTION            482.06      1.50       0.0
  I40165               JUNCTION            481.00      2.00       0.0
  I40166               JUNCTION            481.58      2.00       0.0
  I40167               JUNCTION            482.36      1.50       0.0
  I40168               JUNCTION            483.24      1.50       0.0
  I40169               JUNCTION            494.20      1.50       0.0
  I40170               JUNCTION            493.54      2.50       0.0
  I40171               JUNCTION            488.74      1.50       0.0
  I40172               JUNCTION            488.49      2.50       0.0
  I40173               JUNCTION            489.15      1.50       0.0
  I40174               JUNCTION            488.94      1.50       0.0
  I40175               JUNCTION            487.54      1.50       0.0
  I40176               JUNCTION            451.19      1.25       0.0
  I40177               JUNCTION            450.28      4.83       0.0
  I40178               JUNCTION            450.01      4.83       0.0
  I40179               JUNCTION            449.75      4.83       0.0
  I40180               JUNCTION            448.73      4.00       0.0
  I40181               JUNCTION            448.63      4.00       0.0
  I40182               JUNCTION            451.67      1.25       0.0
  I40183               JUNCTION            451.03      1.25       0.0
  I40184               JUNCTION            452.30      1.25       0.0
  I40185               JUNCTION            454.80      1.25       0.0
  I40186               JUNCTION            452.74      1.25       0.0
  I40187               JUNCTION            451.98      1.50       0.0
  I40188               JUNCTION            488.32      1.50       0.0
  I40189               JUNCTION            488.47      1.50       0.0
  I40190               JUNCTION            486.95      1.50       0.0
  I40191               JUNCTION            487.05      1.50       0.0
  I40192               JUNCTION            484.59      1.50       0.0
  I40193               JUNCTION            481.24      1.50       0.0
  I40194               JUNCTION            481.40      1.50       0.0
  I40195               JUNCTION            479.78      1.50       0.0
  I40196               JUNCTION            467.23      3.00       0.0
  I40197               JUNCTION            467.26      3.00       0.0
  I40198               JUNCTION            469.51      1.50       0.0
  I40199               JUNCTION            468.57      1.50       0.0
  I40200               JUNCTION            469.22      3.50       0.0
  I40201               JUNCTION            469.71      3.00       0.0
  I40202               JUNCTION            469.57      3.00       0.0
  I40203               JUNCTION            469.46      3.50       0.0
  I40204               JUNCTION            469.55      3.00       0.0
  I40205               JUNCTION            469.64      3.00       0.0
  I40206               JUNCTION            471.54      3.00       0.0
  I40207               JUNCTION            472.39      3.00       0.0
  I40208               JUNCTION            472.07      3.00       0.0
  I40209               JUNCTION            473.28      1.50       0.0
  I40210               JUNCTION            476.16      1.50       0.0
  I40211               JUNCTION            476.21      1.50       0.0
  I40212               JUNCTION            474.95      1.50       0.0
  I40213               JUNCTION            474.33      3.00       0.0
  I40214               JUNCTION            477.20      1.50       0.0
  I40215               JUNCTION            476.27      3.00       0.0
  I40216               JUNCTION            478.42      3.00       0.0
  I40217               JUNCTION            479.16      1.50       0.0
  I40218               JUNCTION            482.51      1.50       0.0
  I40220               JUNCTION            481.05      1.75       0.0
  I40221               JUNCTION            479.38      2.50       0.0
  I40222               JUNCTION            480.54      2.50       0.0
  I40223               JUNCTION            489.78      1.50       0.0
  I40224               JUNCTION            478.64      2.00       0.0
  I40225               JUNCTION            478.39      2.00       0.0
  I40226               JUNCTION            475.91      2.00       0.0
  I40227               JUNCTION            476.88      2.00       0.0
  I40228               JUNCTION            489.47      1.75       0.0
  I40229               JUNCTION            486.48      1.50       0.0
  I40230               JUNCTION            486.48      1.50       0.0
  I40231               JUNCTION            486.09      2.25       0.0
  I40232               JUNCTION            486.67      1.75       0.0
  I40233               JUNCTION            484.96      1.75       0.0
  I40234               JUNCTION            485.10      3.00       0.0
  I40235               JUNCTION            485.42      3.00       0.0
  I40236               JUNCTION            457.29      1.50       0.0
  I40240               JUNCTION            458.42      3.00       0.0
  I40241               JUNCTION            473.30      1.50       0.0
  I40242               JUNCTION            452.28      1.50       0.0
  I40243               JUNCTION            452.31      1.25       0.0
  I40244               JUNCTION            454.85      1.50       0.0
  I40250               JUNCTION            487.35      2.50       0.0
  I40251               JUNCTION            485.66      2.50       0.0
  I40252               JUNCTION            483.40      2.50       0.0
  I40253               JUNCTION            480.77      2.50       0.0
  I40254               JUNCTION            480.59      2.50       0.0
  I40255               JUNCTION            450.62      6.00       0.0
  M40000               JUNCTION            464.98      1.83       0.0
  M40001               JUNCTION            459.96      3.00       0.0
  M40002               JUNCTION            458.06      3.50       0.0
  M40004               JUNCTION            461.54      3.00       0.0
  M40005               JUNCTION            464.11      3.00       0.0
  M40006               JUNCTION            471.70      3.00       0.0
  M40007               JUNCTION            456.30      3.50       0.0
  M40008               JUNCTION            454.04      5.42       0.0
  M40009               JUNCTION            451.47      4.00       0.0
  M40010               JUNCTION            452.45      4.00       0.0
  M40011               JUNCTION            456.94      2.50       0.0
  M40013               JUNCTION            473.50      3.00       0.0
  M40014               JUNCTION            486.50      1.50       0.0
  M40018               JUNCTION            448.39      4.00       0.0
  M40019               JUNCTION            447.98      4.00       0.0
  M40020               JUNCTION            477.83      3.00       0.0
  M40021               JUNCTION            485.31      3.00       0.0
  M40022               JUNCTION            473.85      2.00       0.0
  M40023               JUNCTION            478.69      2.50       0.0
  M40024               JUNCTION            455.29      3.50       0.0
  M40025               JUNCTION            455.02      3.50       0.0
  M40026               JUNCTION            454.81      3.50       0.0
  M40027               JUNCTION            450.62      6.00       0.0
  NJ40001              JUNCTION            487.93      2.50       0.0
  NJ40002              JUNCTION            487.54      2.50       0.0
  NJ40003              JUNCTION            471.50      3.00       0.0
  NJ40004              JUNCTION            456.40      3.50       0.0
  NJ40005              JUNCTION            454.64      5.42       0.0
  NJ40006              JUNCTION            456.18      3.50       0.0
  1                    JUNCTION            447.69     30.03       0.0
  2                    JUNCTION            447.50     30.03       0.0
  3                    JUNCTION            447.43      5.63       0.0
  4                    JUNCTION            447.38      5.63       0.0
  5                    JUNCTION            446.61      4.06 1000000.0
  LQ2174               JUNCTION            440.55      9.80       0.0
  L222.05-Railroad     JUNCTION            440.85     18.50       0.0
  L222.75              JUNCTION            443.05     18.50       0.0
  L223.55              JUNCTION            442.35     27.00       0.0
  L224.15              JUNCTION            441.55     27.80       0.0
  LR225.1              JUNCTION            441.55     27.80       0.0
  LS230.4              JUNCTION            443.85     27.80       0.0
  LBridgeNorthSt230.9  JUNCTION            443.55     12.50       0.0
  L231.41              JUNCTION            443.55     12.80       0.0
  L23360               JUNCTION            442.95     16.10       0.0
  L23614               JUNCTION            443.65     16.10       0.0
  LBridgeLouther23664  JUNCTION            442.45     13.70       0.0
  L23756               JUNCTION            444.35     13.00       0.0
  L23875               JUNCTION            444.15     15.20       0.0
  L24140               JUNCTION            444.35     16.00       0.0
  L24234-HighSt        JUNCTION            445.15     16.00       0.0
  L24366               JUNCTION            444.75     16.20       0.0
  L24405               JUNCTION            444.85     15.60       0.0
  L24820-PomfretSt     JUNCTION            444.85     15.50       0.0
  L24920               JUNCTION            444.85     16.50       0.0
  L25060               JUNCTION            445.15     16.70       0.0
  L25390               JUNCTION            445.98     16.70       0.0
  L25815               JUNCTION            446.15     16.69       0.0
  L26486               JUNCTION            446.15     18.20       0.0
  LBridgeOR26536       JUNCTION            446.25     18.20       0.0
  L26594               JUNCTION            446.35     17.85       0.0
  L27000               JUNCTION            445.95     17.70       0.0
  L27540               JUNCTION            445.98     18.37       0.0
  L28075               JUNCTION            446.85     18.37       0.0
  L29040               JUNCTION            448.80     17.30       0.0
  L29405               JUNCTION            448.95     20.40       0.0
  LAD29610             JUNCTION            449.45     20.40       0.0
  L30415               JUNCTION            449.95     15.40       0.0
  L31950               JUNCTION            451.15     15.40       0.0
  L26220               JUNCTION            446.15     16.69 1000000.0
  L24316               JUNCTION            445.15     16.20       0.0
  L24880               JUNCTION            444.85     16.50       0.0
  L26544               JUNCTION            446.25     17.85       0.0
  LK                   JUNCTION            429.85     18.60       0.0
  LL1249               JUNCTION            431.65     16.10       0.0
  LM2134               JUNCTION            434.35     15.00       0.0
  LN2444               JUNCTION            435.55     15.00       0.0
  LO3232               JUNCTION            440.65      9.50       0.0
  LP4264               JUNCTION            441.75     11.60       0.0
  BLA498               JUNCTION            429.85     18.70       0.0
  BLB1249              JUNCTION            431.65     16.10       0.0
  BLC2134              JUNCTION            434.35     15.00       0.0
  BLD2618              JUNCTION            435.75     13.80       0.0
  BLE3232              JUNCTION            439.85      9.50       0.0
  BLF4054              JUNCTION            441.75     11.60       0.0
  LWC-Fork             JUNCTION            441.75      9.80       0.0
  BL4264               JUNCTION            441.75     11.60       0.0
  BL3975               JUNCTION            441.45      8.10       0.0
  BL3963               JUNCTION            441.45     12.00       0.0
  BL3896               JUNCTION            441.35     12.70       0.0
  BL3550               JUNCTION            440.65     12.70       0.0
  BL3175               JUNCTION            439.85     11.00       0.0
  BL3135               JUNCTION            439.85     24.80       0.0
  BL3085               JUNCTION            439.55     24.80       0.0
  BL2757               JUNCTION            437.15     13.60       0.0
  BL2504               JUNCTION            435.85     13.80       0.0
  BL2444               JUNCTION            435.55     15.00       0.0
  BL2540               JUNCTION            435.85     13.80       0.0
  BL1789               JUNCTION            432.85     14.50       0.0
  BL1604               JUNCTION            432.25     13.50       0.0
  BL1454               JUNCTION            431.85     15.70       0.0
  BL1209               JUNCTION            431.55     16.20       0.0
  BL1225               JUNCTION            431.85     16.10       0.0
  BL1170               JUNCTION            431.15     16.20       0.0
  BL876                JUNCTION            430.75     15.50       0.0
  17                   JUNCTION            429.75     18.70       0.0
  19                   JUNCTION            429.75     18.70       0.0
  L163.2               JUNCTION            429.45     28.70       0.0
  20                   JUNCTION            429.45     18.60       0.0
  21                   JUNCTION            429.45     18.60       0.0
  22                   JUNCTION            429.45     18.60       0.0
  BL163.76             JUNCTION            429.75     18.70       0.0
  24                   JUNCTION            431.85     16.10       0.0
  25                   JUNCTION            431.85     16.20       0.0
  L1170                JUNCTION            431.15     16.20       0.0
  L876                 JUNCTION            430.75     14.60       0.0
  L1789                JUNCTION            432.85     14.50       0.0
  L1604                JUNCTION            432.25     13.50       0.0
  L1454                JUNCTION            431.85     15.70       0.0
  L2504                JUNCTION            435.85     14.00       0.0
  L2540                JUNCTION            435.85     14.00       0.0
  L2618                JUNCTION            435.75     14.00       0.0
  30                   JUNCTION            439.85     11.00       0.0
  L3135                JUNCTION            439.85     24.80       0.0
  L3085                JUNCTION            439.55     24.80       0.0
  L2757                JUNCTION            437.15     13.60       0.0
  32                   JUNCTION            441.35     11.90       0.0
  L3963                JUNCTION            441.35     12.00       0.0
  L3896                JUNCTION            441.35     12.70       0.0
  L4054                JUNCTION            441.75     11.90       0.0
  L3550                JUNCTION            440.65     12.70       0.0
  L29230               JUNCTION            448.95     20.40       0.0
  L-Out2               JUNCTION            440.75      9.80       0.0
  D10002               JUNCTION            443.00     13.60       0.0
  D20000               JUNCTION            439.00      9.80       0.0
  D30001               JUNCTION            448.00     16.37       0.0
  D30000               JUNCTION            445.39     16.37       0.0
  D40000               JUNCTION            447.69      7.31       0.0
  LJ152.5              OUTFALL             428.15     28.70       0.0
  
  
  ************
  Link Summary
  ************
  Name             From Node        To Node          Type            Length    %Slope Roughness
  ---------------------------------------------------------------------------------------------
  1                D40000           1                CONDUIT            1.0    0.1000    0.0350
  2                1                2                CONDUIT          464.3    0.0409    0.0350
  3                2                3                CONDUIT          237.0    0.0295    0.0350
  4                3                4                CONDUIT          111.4    0.0449    0.0350
  5                4                5                CONDUIT          245.1    0.3141    0.0350
  8                D30000           L25815           CONDUIT            1.0 -116.9369    0.0320
  9                D30001           L25815           CONDUIT            1.0  185.0000    0.0320
  11               L24366           L24316           CONDUIT           50.0   -0.8000    0.0250
  12               L24920           L24880           CONDUIT           40.0    0.0025    0.0250
  15               BLF4054          BL3975           CONDUIT           79.0    0.3797    0.0200
  17               BLE3232          BL3175           CONDUIT           57.0    0.0018    0.0200
  19               BL3135           BL3085           CONDUIT           49.0    0.6123    0.0200
  21               BLD2618          BL2540           CONDUIT           78.0   -0.1282    0.0200
  25               BLB1249          BL1225           CONDUIT           24.0   -0.8334    0.0200
  29               BLA498           17               CONDUIT           50.0    0.2000    0.0400
  31               BL163.76         19               CONDUIT           50.0    0.0020    0.0400
  32               21               22               CONDUIT           50.0    0.0020    0.0400
  33               LK               20               CONDUIT           50.0    0.8000    0.0400
  34               LL1249           24               CONDUIT           24.0   -0.8334    0.0200
  40               L2618            L2540            CONDUIT           78.0   -0.1282    0.0200
  42               L2504            LN2444           CONDUIT           60.0    0.5000    0.0200
  43               LO3232           30               CONDUIT           57.0    1.4036    0.0200
  47               L4054            32               CONDUIT           79.0    0.5063    0.0200
  50               D10002           L2757            CONDUIT            1.0  585.0000    0.0200
  51               L-Out2           LQ2174           CONDUIT          275.0    0.0727    0.0250
  52               D20000           L-Out2           CONDUIT            1.0 -175.0000    0.0250
  6a               5                L26220           CONDUIT          533.4    0.0862    0.0350
  AccessRoadBRDGE  24               25               CONDUIT           16.0    0.0063    0.0120
  AshburnDr        BL3175           BL3135           CONDUIT           41.0    0.0024    0.0120
  BarryDrBridge    BL2540           BL2504           CONDUIT           36.0    0.0028    0.0120
  BL1604           BL1789           BL1604           CONDUIT          185.0    0.3243    0.0200
  BLPostRdBRDGE    17               BL163.76         CONDUIT           24.0    0.0042    0.0120
  BL-WalkingBridge BL3975           BL3963           CONDUIT           12.0    0.0083    0.0120
  L27000           L27540           L27000           CONDUIT          540.0    0.0056    0.0400
  LPostRdBRDGE     20               21               CONDUIT           22.0    0.0045    0.0120
  LWCAshburnDr     30               L3135            CONDUIT           41.0    0.0024    0.0120
  LWCMarshallRDBRDGE L2540            L2504            CONDUIT           36.0    0.0028    0.0120
  LWCPrattAveWalkingBRDGE 32               L3963            CONDUIT           12.0    0.0083    0.0120
  MarshallRdBridge BL1225           BL1209           CONDUIT           16.0    1.8753    0.0120
  P30000           I30000           I30001           CONDUIT           34.7    2.1633    0.0240
  P30001           I30001           I30002           CONDUIT           17.2    0.1748    0.0240
  P30002           I30002           I30003           CONDUIT           36.3    0.4136    0.0240
  P30003           I30003           I30005           CONDUIT          345.7    1.8169    0.0240
  P30004           I30004           I30005           CONDUIT           36.2    9.7300    0.0240
  P30005           I30005           I30008           CONDUIT          306.7    1.4283    0.0240
  P30006           I30006           I30007           CONDUIT           18.4    1.8455    0.0240
  P30007           I30007           I30008           CONDUIT           35.8    1.9540    0.0240
  P30008           I30008           NJ30005          CONDUIT           52.1    0.3649    0.0240
  P30009           I30009           NJ30005          CONDUIT           49.5    1.6977    0.0240
  P30010           NJ30005          I30012           CONDUIT          307.0    1.8279    0.0240
  P30011           I30011           I30012           CONDUIT           34.5    1.2169    0.0240
  P30012           I30012           I30013           CONDUIT          255.3    1.2301    0.0240
  P30013           I30013           I30016           CONDUIT           62.2   -0.1930    0.0240
  P30014           I30014           I30015           CONDUIT           14.2    0.3518    0.0120
  P30015           I30015           I30016           CONDUIT           33.4    3.8075    0.0240
  P30016           I30016           I30018           CONDUIT           78.9    1.1539    0.0240
  P30017           I30017           I30018           CONDUIT           38.4   14.3778    0.0240
  P30019           I30017           I30019           CONDUIT          328.9    1.4808    0.0240
  P30020           I30018           I30020           CONDUIT          328.8    0.0578    0.0240
  P30022           I30019           I30020           CONDUIT           35.3    2.2403    0.0240
  P30023           I30019           I30022           CONDUIT          259.8   -0.5466    0.0240
  P30024           I30021           I30022           CONDUIT           14.7    0.1365    0.0120
  P30025           I30020           I30026           CONDUIT          350.2    0.1827    0.0240
  P30027           I30027           I30026           CONDUIT           13.0    5.3083    0.0240
  P30028           I30022           NJ30001          CONDUIT           46.5    5.2783    0.0120
  P30029           NJ30001          I30025           CONDUIT            9.5    0.0105    0.0240
  P30030           I30023           NJ30001          CONDUIT           21.3    2.1118    0.0240
  P30031           I30025           I30029           CONDUIT          233.4    0.2870    0.0240
  P30032           I30030           I30033           CONDUIT          213.2    0.2017    0.0240
  P30033           I30033           NJ30002          CONDUIT           11.9    0.0084    0.0120
  P30034           NJ30002          NJ30003          CONDUIT           36.8    0.0027    0.0120
  P30035           NJ30003          I30035           CONDUIT            8.9   -1.1179    0.0120
  P30036           I30035           D30001           CONDUIT           96.7   -0.3620    0.0120
  P30037           I30026           I30028           CONDUIT           54.3   -0.4416    0.0240
  P30039           I30028           I30031           CONDUIT          303.1    0.2706    0.0240
  P30041           I30031           I30048           CONDUIT          264.0    0.9736    0.0240
  P30043           I30048           NJ30004          CONDUIT           17.0   -0.8230    0.0240
  P30044           NJ30004          D30000           CONDUIT           36.8    0.3533    0.0120
  P30045           I30036           NJ30004          CONDUIT           19.2   12.5719    0.0240
  P30046           I30032           NJ30002          CONDUIT           12.3    5.7102    0.0120
  P30047           I30034           NJ30003          CONDUIT           12.7    4.4012    0.0120
  P30048           I30029           I30030           CONDUIT          157.5    0.1778    0.0240
  P30049           I30045           I30046           CONDUIT           20.7    1.3511    0.0240
  P30050           I30046           I30047           CONDUIT           35.6    1.4037    0.0240
  P30051           I30047           I30040           CONDUIT           20.5    0.6355    0.0240
  P30052           I30040           I30039           CONDUIT          232.0   -3.4633    0.0240
  P30053           I30039           I30037           CONDUIT           31.6   33.9719    0.0240
  P30054           I30037           I30023           CONDUIT          235.9    1.9421    0.0240
  P30055           I30044           I30043           CONDUIT           22.3    0.4488    0.0240
  P30056           I30043           I30042           CONDUIT           35.5    1.7473    0.0240
  P30057           I30042           I30041           CONDUIT           17.6    0.9676    0.0240
  P30058           I30041           I30038           CONDUIT          262.8    0.8219    0.0240
  P30059           I30038           I30021           CONDUIT          246.9    0.9477    0.0240
  P40000           I40189           I40188           CONDUIT           33.5    0.4437    0.0240
  P40001           I40189           I40190           CONDUIT          166.0    0.9143    0.0240
  P40002           I40191           I40190           CONDUIT           32.6    0.3014    0.0240
  P40003           I40190           I40192           CONDUIT          145.4    1.6263    0.0240
  P40004           I40192           I40195           CONDUIT          144.7    3.3252    0.0240
  P40005           I40218           I40217           CONDUIT            5.1   88.0519    0.0240
  P40006           I40217           I40216           CONDUIT           33.0    2.2436    0.0240
  P40007           I40216           I40215           CONDUIT          345.5    0.6222    0.0240
  P40008           I40211           I40210           CONDUIT            4.8    1.0612    0.0240
  P40009           I40210           I40212           CONDUIT          105.9    1.1412    0.0240
  P40010           I40215           I40213           CONDUIT          319.9    0.6064    0.0240
  P40011           I40212           I40213           CONDUIT           33.1    1.8723    0.0240
  P40012           I40213           I40207           CONDUIT          327.8    0.5922    0.0240
  P40013           I40207           I40208           CONDUIT            8.5    3.7265    0.0240
  P40014           I40241           I40209           CONDUIT            3.1    0.6990    0.0240
  P40015           I40208           I40209           CONDUIT           33.6   -3.5907    0.0240
  P40016           I40208           I40206           CONDUIT          101.8    0.5233    0.0240
  P40017           I40206           I40203           CONDUIT          283.9    0.7326    0.0240
  P40018           I40201           I40202           CONDUIT            4.8    3.0457    0.0240
  P40018a          I40202           I40203           CONDUIT            3.2    3.3114    0.0100
  P40019           I40203           I40200           CONDUIT           80.5    0.2965    0.0240
  P40020           I40203           I40204           CONDUIT           33.0   -0.2585    0.0240
  P40020a          I40204           I40205           CONDUIT            6.4   -1.5010    0.0240
  P40021           I40205           I40196           CONDUIT          383.4    0.6277    0.0240
  P40022           I40198           I40199           CONDUIT           14.6    6.4631    0.0240
  P40023           I40199           I40196           CONDUIT           33.5    3.9903    0.0240
  P40024           I40196           I40197           CONDUIT            8.6   -0.3163    0.0240
  P40025           I40197           I40003           CONDUIT          189.9    0.3318    0.0240
  P40026           I40003           I40002           CONDUIT           75.9    0.5415    0.0240
  P40027           I40000           I40001           CONDUIT           53.3   -0.0019    0.0240
  P40028           I40001           I40002           CONDUIT           39.4    5.4855    0.0240
  P40029           I40223           I40228           CONDUIT           34.1    0.9081    0.0110
  P40030           I40228           I40232           CONDUIT          327.0    0.8562    0.0240
  P40031           I40230           I40229           CONDUIT            1.6    0.0617    0.0240
  P40032           I40229           I40231           CONDUIT           34.0    1.1475    0.0240
  P40033           I40232           I40231           CONDUIT            8.1    7.1380    0.0240
  P40034           I40235           M40021           CONDUIT           28.7    0.3833    0.0240
  P40035           I40169           I40170           CONDUIT           33.6    1.9761    0.0240
  P40036           I40171           I40172           CONDUIT           32.4    0.7704    0.0240
  P40037           I40170           I40172           CONDUIT          292.3    1.7281    0.0240
  P40038           I40173           I40174           CONDUIT           31.6    0.6541    0.0240
  P40039           I40172           NJ40001          CONDUIT           69.2    0.8088    0.0240
  P40040           I40174           NJ40001          CONDUIT           92.1    1.0971    0.0240
  P40041           I40175           NJ40002          CONDUIT            0.5    0.1837    0.0240
  P40042           I40155           M40014           CONDUIT           38.2   16.0058    0.0240
  P40043           I40154           I40156           CONDUIT           33.9    0.2324    0.0240
  P40044           I40156           M40014           CONDUIT           55.2   10.7565    0.0240
  P40045           M40014           I40158           CONDUIT          290.0    0.3587    0.0240
  P40046           I40157           I40158           CONDUIT           33.1   12.1431    0.0240
  P40047           I40158           M40023           CONDUIT           71.3    9.5410    0.0240
  P40048           I40160           M40023           CONDUIT           63.2   11.3715    0.0240
  P40049           I40159           I40160           CONDUIT           33.2   13.5335    0.0240
  P40050           I40168           I40167           CONDUIT           32.6    2.6965    0.0240
  P40051           I40167           I40166           CONDUIT          130.0    0.6033    0.0240
  P40052           I40166           I40165           CONDUIT           76.2    0.7613    0.0240
  P40053           I40164           I40165           CONDUIT           52.7    2.0067    0.0240
  P40054           I40165           I40162           CONDUIT          240.6    0.2494    0.0240
  P40055           I40162           I40161           CONDUIT           34.8    0.4595    0.0240
  P40056           I40161           M40023           CONDUIT          348.5    0.4448    0.0240
  P40057           M40023           I40153           CONDUIT          299.0    0.2843    0.0240
  P40058           I40152           I40153           CONDUIT           32.9   30.9374    0.0240
  P40059           I40148           I40149           CONDUIT           33.1    2.5402    0.0240
  P40060           I40151           I40150           CONDUIT           34.4    1.8039    0.0240
  P40061           I40150           M40013           CONDUIT           40.1   17.0501    0.0240
  P40062           I40149           M40013           CONDUIT           53.3   14.8359    0.0240
  P40063           I40153           M40013           CONDUIT          299.8    1.4477    0.0240
  P40064           I40002           I40006           CONDUIT          378.2    0.1972    0.0240
  P40065           I40006           I40007           CONDUIT           79.6    0.4637    0.0240
  P40066           I40004           I40005           CONDUIT           53.6    8.9277    0.0240
  P40067           I40005           M40000           CONDUIT           10.2   -7.1721    0.0240
  P40068           I40005           I40007           CONDUIT           31.8   -2.6890    0.0240
  P40069           I40005           I40025           CONDUIT          399.3    0.2098    0.0240
  P40070           I40008           I40025           CONDUIT           34.3    8.0989    0.0240
  P40071           I40025           I40011           CONDUIT           53.8    0.2274    0.0240
  P40072           I40009           I40010           CONDUIT           37.9    7.4543    0.0240
  P40073           I40011           I40010           CONDUIT           82.1    0.0279    0.0240
  P40074           I40010           I40018           CONDUIT          304.0    0.2787    0.0240
  P40075           I40017           I40018           CONDUIT           33.9    5.8583    0.0240
  P40076           I40019           I40020           CONDUIT           39.2    5.4978    0.0240
  P40077           I40021           I40022           CONDUIT           43.4    4.4940    0.0240
  P40078           I40023           I40024           CONDUIT           33.6    6.2881    0.0240
  P40079           I40018           I40020           CONDUIT          276.0    0.2609    0.0240
  P40080           I40020           I40022           CONDUIT           91.9    0.1306    0.0240
  P40081           I40022           I40024           CONDUIT           53.8    0.3904    0.0240
  P40082           I40024           I40026           CONDUIT          146.7    0.3261    0.0240
  P40083           I40026           I40028           CONDUIT          143.9    0.0775    0.0240
  P40084           I40027           I40028           CONDUIT           38.3   14.2309    0.0240
  P40085           I40028           M40001           CONDUIT          166.1    0.4938    0.0240
  P40086           I40016           I40015           CONDUIT           95.4    0.4296    0.0240
  P40087           I40015           I40014           CONDUIT          270.2    0.3553    0.0240
  P40088           I40014           I40013           CONDUIT           98.0    3.3600    0.0240
  P40089           I40013           I40012           CONDUIT          144.1    2.6169    0.0240
  P40090           I40012           I40011           CONDUIT          114.6    3.5807    0.0240
  P40091           I40030           I40029           CONDUIT           34.6   18.3104    0.0240
  P40092           I40032           I40031           CONDUIT           37.2   11.8354    0.0240
  P40093           I40029           I40031           CONDUIT          409.3    0.1564    0.0240
  P40094           I40031           I40240           CONDUIT           86.4    0.1042    0.0240
  P40095           I40240           M40002           CONDUIT          104.0    0.3462    0.0240
  P40096           I40036           M40004           CONDUIT          107.1    0.3548    0.0240
  P40097           I40035           M40004           CONDUIT           55.3   19.5855    0.0240
  P40098           I40033           I40034           CONDUIT           35.9    3.9549    0.0240
  P40099           I40034           M40004           CONDUIT           50.5   21.1456    0.0240
  P40100           I40131           I40132           CONDUIT           36.9   16.6700    0.0240
  P40101           M40004           I40132           CONDUIT          398.9    0.3484    0.0240
  P40102           I40132           I40134           CONDUIT          247.7    0.5894    0.0240
  P40103           I40133           I40134           CONDUIT           46.9   10.6058    0.0240
  P40104           I40134           M40002           CONDUIT           73.6    0.8563    0.0240
  P40105           I40083           I40084           CONDUIT           45.1    7.0904    0.0240
  P40106           I40084           M40007           CONDUIT           72.3    0.4842    0.0240
  P40107           I40085           M40007           CONDUIT           57.0    6.0976    0.0240
  P40108           M40007           I40086           CONDUIT           37.1    0.5394    0.0240
  P40109           M40002           M40007           CONDUIT          396.5    0.4439    0.0240
  P40110           I40065           I40066           CONDUIT           57.4    1.1668    0.0240
  P40111           I40066           I40067           CONDUIT           28.2    3.1570    0.0240
  P40112           I40067           I40068           CONDUIT          379.8    0.3686    0.0240
  P40113           I40069           I40068           CONDUIT           29.2   -0.6497    0.0240
  P40114           I40069           I40071           CONDUIT           65.8    1.9002    0.0240
  P40115           I40070           I40071           CONDUIT           33.8    3.0798    0.0240
  P40116           I40071           I40073           CONDUIT          307.7    0.3412    0.0240
  P40117           I40072           I40073           CONDUIT           34.0    5.7132    0.0240
  P40118           I40073           I40075           CONDUIT          290.0    0.3310    0.0240
  P40119           I40075           I40076           CONDUIT           65.8    0.1823    0.0240
  P40120           I40074           I40075           CONDUIT           34.1    5.8430    0.0240
  P40121           I40076           I40077           CONDUIT          385.5    1.3829    0.0240
  P40122           I40077           I40080           CONDUIT          248.9    0.6229    0.0240
  P40123           I40078           I40079           CONDUIT           36.2    2.5718    0.0240
  P40124           I40079           I40081           CONDUIT           47.5    6.6719    0.0240
  P40125           I40080           I40081           CONDUIT           41.8    0.7414    0.0240
  P40126           I40081           I40084           CONDUIT          303.6    0.4909    0.0240
[...]
              0.8103     0.8528     0.8924     0.9294     0.9642 
              0.9989     0.9334     0.7819     0.6521     0.5880 
              0.5566     0.5428     0.5393     0.5424     0.5497 
              0.5600     0.5724     0.5862     0.6011     0.6164 
              0.6323     0.6486     0.6652     0.6820     0.6990 
              0.7162     0.7334     0.7506     0.7679     0.7873 
              0.8086     0.8300     0.8514     0.8728     0.8941 
              0.9154     0.9367     0.9579     0.9790     1.0000 
  Width: 
              0.0788     0.0790     0.0792     0.0793     0.0795 
              0.0797     0.0798     0.0800     0.0802     0.0804 
              0.0805     0.0807     0.0809     0.0810     0.0812 
              0.1207     0.3077     0.4946     0.5821     0.5973 
              0.6125     0.6277     0.6429     0.6581     0.6733 
              0.6885     0.7037     0.7189     0.7342     0.7507 
              0.7671     0.7836     0.8001     0.8165     0.8330 
              0.8495     0.8659     0.8824     0.8989     0.9113 
              0.9202     0.9291     0.9379     0.9468     0.9557 
              0.9645     0.9734     0.9823     0.9911     1.0000 

  Transect WC3232-O
  Area:  
              0.0016     0.0032     0.0048     0.0063     0.0079 
              0.0095     0.0111     0.0127     0.0143     0.0159 
              0.0175     0.0191     0.0207     0.0224     0.0240 
              0.0256     0.0283     0.0327     0.0387     0.0473 
              0.0586     0.0725     0.0890     0.1082     0.1300 
              0.1544     0.1816     0.2113     0.2437     0.2774 
              0.3113     0.3454     0.3798     0.4144     0.4492 
              0.4842     0.5195     0.5550     0.5906     0.6266 
              0.6628     0.6993     0.7360     0.7731     0.8104 
              0.8480     0.8857     0.9236     0.9617     1.0000 
  Hrad:  
              0.1467     0.2831     0.4103     0.5292     0.6406 
              0.7452     0.8436     0.9364     1.0241     1.1070 
              1.1855     1.2601     1.3310     1.3985     1.4628 
              1.5287     1.5354     1.4517     1.3165     1.1481 
              0.9903     0.8608     0.7607     0.6855     0.6297 
              0.5888     0.5590     0.5377     0.5237     0.5306 
              0.5430     0.5590     0.5775     0.5980     0.6198 
              0.6427     0.6664     0.6907     0.7155     0.7402 
              0.7648     0.7896     0.8146     0.8397     0.8654 
              0.8921     0.9190     0.9459     0.9729     1.0000 
  Width: 
              0.0413     0.0414     0.0414     0.0415     0.0415 
              0.0416     0.0416     0.0417     0.0417     0.0418 
              0.0418     0.0419     0.0419     0.0420     0.0420 
              0.0507     0.0917     0.1327     0.1899     0.2587 
              0.3276     0.3965     0.4654     0.5342     0.6031 
              0.6720     0.7409     0.8097     0.8753     0.8811 
              0.8869     0.8927     0.8985     0.9043     0.9101 
              0.9159     0.9217     0.9276     0.9334     0.9400 
              0.9474     0.9548     0.9622     0.9696     0.9763 
              0.9810     0.9858     0.9905     0.9953     1.0000 

  Transect WC3550
  Area:  
              0.0013     0.0025     0.0038     0.0051     0.0063 
              0.0076     0.0089     0.0102     0.0115     0.0131 
              0.0171     0.0232     0.0314     0.0416     0.0538 
              0.0681     0.0845     0.1029     0.1234     0.1458 
              0.1702     0.1966     0.2241     0.2517     0.2795 
              0.3073     0.3353     0.3634     0.3915     0.4197 
              0.4479     0.4761     0.5044     0.5328     0.5612 
              0.5897     0.6184     0.6471     0.6760     0.7050 
              0.7341     0.7633     0.7926     0.8220     0.8514 
              0.8810     0.9106     0.9403     0.9701     1.0000 
  Hrad:  
              0.1228     0.2344     0.3364     0.4298     0.5159 
              0.5954     0.6691     0.7376     0.8015     0.8405 
              0.7398     0.6194     0.5250     0.4589     0.4143 
              0.3847     0.3657     0.3539     0.3479     0.3462 
              0.3471     0.3501     0.3654     0.3836     0.4034 
              0.4243     0.4467     0.4702     0.4940     0.5182 
              0.5426     0.5672     0.5919     0.6167     0.6407 
              0.6643     0.6880     0.7118     0.7355     0.7592 
              0.7829     0.8066     0.8309     0.8552     0.8795 
              0.9037     0.9278     0.9520     0.9760     1.0000 
  Width: 
              0.0422     0.0423     0.0424     0.0425     0.0426 
              0.0427     0.0428     0.0428     0.0429     0.0904 
              0.1700     0.2386     0.3071     0.3756     0.4441 
              0.5127     0.5812     0.6497     0.7169     0.7827 
              0.8485     0.9143     0.9216     0.9259     0.9302 
              0.9345     0.9372     0.9388     0.9404     0.9420 
              0.9437     0.9453     0.9469     0.9485     0.9518 
              0.9555     0.9593     0.9631     0.9669     0.9707 
              0.9745     0.9782     0.9811     0.9838     0.9865 
              0.9892     0.9919     0.9946     0.9973     1.0000 

  Transect WC3896
  Area:  
              0.0008     0.0016     0.0024     0.0031     0.0039 
              0.0047     0.0055     0.0063     0.0086     0.0141 
              0.0225     0.0339     0.0480     0.0636     0.0803 
              0.0983     0.1174     0.1378     0.1596     0.1826 
              0.2070     0.2320     0.2573     0.2828     0.3087 
              0.3348     0.3609     0.3870     0.4132     0.4395 
              0.4659     0.4923     0.5187     0.5453     0.5721 
              0.5992     0.6265     0.6540     0.6819     0.7099 
              0.7383     0.7668     0.7956     0.8244     0.8534 
              0.8825     0.9117     0.9410     0.9704     1.0000 
  Hrad:  
              0.1274     0.2411     0.3433     0.4357     0.5196 
              0.5962     0.6665     0.7312     0.6173     0.4123 
              0.2962     0.2381     0.2162     0.2159     0.2224 
              0.2321     0.2435     0.2557     0.2684     0.2814 
              0.2962     0.3193     0.3427     0.3664     0.3902 
              0.4152     0.4404     0.4658     0.4913     0.5170 
              0.5426     0.5683     0.5940     0.6183     0.6418 
              0.6653     0.6888     0.7122     0.7355     0.7588 
              0.7820     0.8055     0.8300     0.8545     0.8789 
              0.9032     0.9275     0.9517     0.9759     1.0000 
  Width: 
              0.0265     0.0266     0.0266     0.0267     0.0268 
              0.0268     0.0269     0.0270     0.1344     0.2345 
              0.3346     0.4347     0.5049     0.5452     0.5854 
              0.6257     0.6673     0.7117     0.7560     0.8003 
              0.8389     0.8487     0.8584     0.8682     0.8780 
              0.8800     0.8820     0.8841     0.8861     0.8881 
              0.8902     0.8922     0.8942     0.9006     0.9092 
              0.9177     0.9262     0.9348     0.9433     0.9519 
              0.9604     0.9675     0.9715     0.9756     0.9797 
              0.9837     0.9878     0.9919     0.9959     1.0000 

  Transect WC3963
  Area:  
              0.0004     0.0010     0.0017     0.0024     0.0030 
              0.0037     0.0044     0.0051     0.0058     0.0066 
              0.0081     0.0111     0.0177     0.0297     0.0433 
              0.0578     0.0735     0.0920     0.1132     0.1373 
              0.1639     0.1910     0.2182     0.2455     0.2728 
              0.3002     0.3276     0.3551     0.3826     0.4101 
              0.4378     0.4654     0.4932     0.5210     0.5491 
              0.5776     0.6063     0.6353     0.6645     0.6941 
              0.7239     0.7540     0.7843     0.8147     0.8453 
              0.8759     0.9067     0.9377     0.9688     1.0000 
  Hrad:  
              0.0807     0.2042     0.3114     0.4055     0.4887 
              0.5629     0.6296     0.6898     0.7446     0.7805 
              0.7442     0.6082     0.4075     0.2809     0.2481 
              0.2423     0.2440     0.2465     0.2504     0.2557 
              0.2507     0.2744     0.2995     0.3254     0.3520 
              0.3790     0.4062     0.4336     0.4612     0.4888 
              0.5165     0.5442     0.5719     0.5968     0.6211 
              0.6454     0.6698     0.6942     0.7185     0.7429 
              0.7672     0.7922     0.8185     0.8446     0.8707 
              0.8967     0.9227     0.9485     0.9743     1.0000 
  Width: 
              0.0211     0.0212     0.0213     0.0214     0.0215 
              0.0215     0.0216     0.0217     0.0218     0.0364 
              0.0626     0.1464     0.3028     0.4178     0.4478 
              0.4778     0.5444     0.6342     0.7239     0.8136 
              0.8670     0.8687     0.8704     0.8720     0.8737 
              0.8753     0.8770     0.8787     0.8803     0.8820 
              0.8836     0.8853     0.8870     0.8946     0.9037 
              0.9128     0.9219     0.9310     0.9400     0.9491 
              0.9582     0.9654     0.9697     0.9740     0.9784 
              0.9827     0.9870     0.9913     0.9957     1.0000 

  Transect WC4054
  Area:  
              0.0006     0.0011     0.0017     0.0022     0.0028 
              0.0034     0.0040     0.0071     0.0141     0.0231 
              0.0336     0.0456     0.0592     0.0743     0.0910 
              0.1092     0.1291     0.1505     0.1736     0.1983 
              0.2237     0.2491     0.2746     0.3003     0.3260 
              0.3518     0.3777     0.4036     0.4297     0.4558 
              0.4820     0.5083     0.5347     0.5612     0.5877 
              0.6143     0.6411     0.6679     0.6948     0.7218 
              0.7488     0.7760     0.8034     0.8309     0.8586 
              0.8865     0.9146     0.9429     0.9714     1.0000 
  Hrad:  
              0.1255     0.2393     0.3431     0.4381     0.5255 
              0.6062     0.6765     0.4126     0.2367     0.1957 
              0.1853     0.1858     0.1912     0.1994     0.2091 
              0.2184     0.2278     0.2383     0.2496     0.2635 
              0.2880     0.3128     0.3379     0.3631     0.3886 
              0.4142     0.4399     0.4656     0.4912     0.5169 
              0.5425     0.5681     0.5936     0.6190     0.6444 
              0.6697     0.6949     0.7201     0.7452     0.7703 
              0.7953     0.8189     0.8416     0.8643     0.8870 
              0.9097     0.9323     0.9549     0.9775     1.0000 
  Width: 
              0.0194     0.0195     0.0195     0.0196     0.0196 
              0.0197     0.0349     0.1815     0.2852     0.3380 
              0.3919     0.4457     0.4996     0.5535     0.6073 
              0.6625     0.7191     0.7757     0.8323     0.8797 
              0.8833     0.8869     0.8904     0.8940     0.8969 
              0.8997     0.9025     0.9053     0.9081     0.9109 
              0.9137     0.9166     0.9194     0.9225     0.9255 
              0.9286     0.9317     0.9347     0.9378     0.9408 
              0.9439     0.9490     0.9554     0.9618     0.9681 
              0.9745     0.9809     0.9873     0.9936     1.0000 

  Transect WC4264-P
  Area:  
              0.0005     0.0009     0.0014     0.0038     0.0088 
              0.0147     0.0216     0.0295     0.0384     0.0482 
              0.0590     0.0708     0.0835     0.0972     0.1119 
              0.1276     0.1444     0.1623     0.1813     0.2014 
              0.2227     0.2448     0.2677     0.2912     0.3155 
              0.3406     0.3663     0.3924     0.4186     0.4449 
              0.4715     0.4981     0.5250     0.5520     0.5792 
              0.6065     0.6340     0.6616     0.6894     0.7172 
              0.7452     0.7732     0.8013     0.8294     0.8577 
              0.8860     0.9144     0.9428     0.9714     1.0000 
  Hrad:  
              0.1151     0.2224     0.3229     0.1644     0.1213 
              0.1236     0.1337     0.1462     0.1595     0.1731 
              0.1869     0.2007     0.2146     0.2284     0.2422 
              0.2548     0.2673     0.2799     0.2926     0.3053 
              0.3185     0.3370     0.3554     0.3738     0.3920 
              0.4102     0.4299     0.4542     0.4786     0.5029 
              0.5273     0.5516     0.5759     0.6001     0.6242 
              0.6483     0.6723     0.6963     0.7212     0.7468 
              0.7723     0.7977     0.8232     0.8486     0.8739 
              0.8992     0.9245     0.9497     0.9749     1.0000 
  Width: 
              0.0159     0.0160     0.0161     0.1571     0.1909 
              0.2247     0.2585     0.2923     0.3261     0.3599 
              0.3937     0.4275     0.4613     0.4951     0.5289 
              0.5671     0.6058     0.6446     0.6833     0.7220 
              0.7598     0.7851     0.8104     0.8357     0.8609 
              0.8862     0.9064     0.9120     0.9175     0.9231 
              0.9286     0.9342     0.9397     0.9453     0.9508 
              0.9564     0.9619     0.9675     0.9712     0.9738 
              0.9764     0.9790     0.9817     0.9843     0.9869 
              0.9895     0.9921     0.9948     0.9974     1.0000 

  Transect WC78
  Area:  
              0.0008     0.0018     0.0030     0.0043     0.0058 
              0.0073     0.0088     0.0103     0.0118     0.0133 
              0.0149     0.0166     0.0184     0.0203     0.0224 
              0.0289     0.0401     0.0543     0.0713     0.0912 
              0.1126     0.1345     0.1569     0.1797     0.2031 
              0.2270     0.2514     0.2763     0.3017     0.3275 
              0.3539     0.3808     0.4082     0.4361     0.4645 
              0.4934     0.5230     0.5536     0.5853     0.6180 
              0.6516     0.6863     0.7220     0.7587     0.7964 
              0.8351     0.8748     0.9155     0.9573     1.0000 
  Hrad:  
              0.0575     0.1049     0.1474     0.1850     0.2214 
              0.2639     0.3020     0.3363     0.3674     0.4035 
              0.4456     0.4845     0.5207     0.5545     0.5772 
              0.4892     0.4046     0.3592     0.3361     0.3272 
              0.3377     0.3559     0.3784     0.4034     0.4297 
              0.4570     0.4848     0.5128     0.5411     0.5693 
              0.5975     0.6257     0.6537     0.6816     0.7094 
              0.7370     0.7559     0.7746     0.7934     0.8122 
              0.8311     0.8499     0.8687     0.8875     0.9063 
              0.9251     0.9438     0.9626     0.9813     1.0000 
  Width: 
              0.0211     0.0255     0.0288     0.0321     0.0348 
              0.0348     0.0348     0.0348     0.0348     0.0359 
              0.0382     0.0405     0.0428     0.0451     0.0737 
              0.2259     0.2931     0.3602     0.4274     0.4886 
              0.5002     0.5117     0.5233     0.5349     0.5465 
              0.5580     0.5696     0.5812     0.5928     0.6043 
              0.6159     0.6275     0.6391     0.6506     0.6622 
              0.6738     0.6969     0.7202     0.7435     0.7668 
              0.7901     0.8135     0.8368     0.8601     0.8834 
              0.9067     0.9300     0.9534     0.9767     1.0000 

  Transect 163.2A
  Area:  
              0.0084     0.0176     0.0276     0.0384     0.0501 
              0.0624     0.0752     0.0886     0.1025     0.1170 
              0.1319     0.1474     0.1634     0.1800     0.1971 
              0.2146     0.2321     0.2496     0.2672     0.2847 
              0.3023     0.3199     0.3375     0.3552     0.3728 
              0.3905     0.4082     0.4259     0.4436     0.4613 
              0.4793     0.4975     0.5161     0.5351     0.5544 
              0.5741     0.5942     0.6146     0.6354     0.6565 
              0.6780     0.6998     0.7220     0.7446     0.7675 
              0.7908     0.8159     0.8574     0.9188     1.0000 
  Hrad:  
              0.0384     0.0731     0.1051     0.1350     0.1631 
              0.1916     0.2188     0.2447     0.2694     0.2932 
              0.3162     0.3385     0.3602     0.3812     0.4018 
              0.4274     0.4539     0.4794     0.5041     0.5280 
              0.5511     0.5735     0.5952     0.6162     0.6366 
              0.6563     0.6755     0.6941     0.7122     0.7316 
              0.7566     0.7835     0.8098     0.8354     0.8603 
              0.8847     0.9085     0.9318     0.9545     0.9768 
              0.9987     1.0200     1.0410     1.0616     1.0818 
              1.1016     1.1110     1.0961     1.0563     1.0000 
  Width: 
              0.0966     0.1054     0.1143     0.1231     0.1320 
              0.1381     0.1439     0.1497     0.1555     0.1614 
              0.1672     0.1730     0.1788     0.1846     0.1905 
              0.1921     0.1923     0.1925     0.1926     0.1928 
              0.1930     0.1932     0.1934     0.1936     0.1938 
              0.1940     0.1942     0.1944     0.1946     0.1954 
              0.1983     0.2023     0.2062     0.2102     0.2141 
              0.2180     0.2220     0.2259     0.2298     0.2338 
              0.2377     0.2417     0.2456     0.2495     0.2535 
              0.2574     0.3453     0.5647     0.7826     1.0000 

  Transect 163.2B
  Area:  
              0.0008     0.0034     0.0061     0.0087     0.0114 
              0.0141     0.0171     0.0205     0.0245     0.0289 
              0.0338     0.0391     0.0450     0.0513     0.0582 
              0.0655     0.0732     0.0815     0.0902     0.0995 
              0.1092     0.1193     0.1308     0.1446     0.1607 
              0.1792     0.1998     0.2217     0.2448     0.2691 
              0.2945     0.3211     0.3488     0.3778     0.4079 
              0.4392     0.4716     0.5052     0.5400     0.5760 
              0.6131     0.6514     0.6909     0.7315     0.7734 
              0.8163     0.8605     0.9058     0.9523     1.0000 
  Hrad:  
              0.0210     0.0764     0.1310     0.1821     0.2299 
              0.2757     0.3210     0.3578     0.3887     0.4156 
              0.4399     0.4623     0.4835     0.5038     0.5236 
              0.5430     0.5621     0.5810     0.5998     0.6185 
              0.6372     0.6558     0.6367     0.6282     0.6232 
              0.6193     0.6219     0.6309     0.6415     0.6534 
              0.6664     0.6802     0.6949     0.7101     0.7260 
              0.7423     0.7590     0.7761     0.7936     0.8113 
              0.8294     0.8476     0.8661     0.8847     0.9036 
              0.9226     0.9417     0.9610     0.9805     1.0000 
  Width: 
              0.0494     0.0550     0.0551     0.0553     0.0554 
              0.0567     0.0666     0.0766     0.0865     0.0965 
              0.1065     0.1164     0.1264     0.1363     0.1463 
              0.1562     0.1662     0.1761     0.1861     0.1960 
              0.2060     0.2159     0.2619     0.3101     0.3583 
              0.4065     0.4420     0.4662     0.4905     0.5148 
              0.5390     0.5633     0.5875     0.6118     0.6361 
              0.6603     0.6846     0.7089     0.7331     0.7574 
              0.7816     0.8059     0.8302     0.8544     0.8787 
              0.9030     0.9272     0.9515     0.9757     1.0000 
  
  
  *********************
  Rainfall File Summary
  *********************
  Station    First        Last         Recording   Periods    Periods    Periods
  ID         Date         Date         Frequency  w/Precip    Missing    Malfunc.
  -------------------------------------------------------------------------------

  
  ERROR 317: cannot open rainfall data file RG_10IDF.txt.

  Analysis begun on:  Fri Nov 29 13:39:49 2019
  Analysis ended on:  Fri Nov 29 13:39:49 2019
  Total elapsed time: < 1 sec