
  EPA STORM WATER MANAGEMENT MODEL - VERSION 5.1 (Build 5.1.013)
  --------------------------------------------------------------

  KENH NHIEU LOC - THI NGHE 
  CHUA NHAP CAT THUC-CHUA MUA-CHUA BIEN TRIEU 
  SW   1       8       9 
  
  WARNING 03: negative offset ignored for Link CBhBn83
  WARNING 03: negative offset ignored for Link CBhBn86
  WARNING 03: negative offset ignored for Link CBhBn88
  WARNING 03: negative offset ignored for Link CBhBn93
  WARNING 03: negative offset ignored for Link CBhBn93
  WARNING 03: negative offset ignored for Link CBhBn96
  WARNING 03: negative offset ignored for Link CBunB67
  WARNING 03: negative offset ignored for Link CBunB73
  WARNING 03: negative offset ignored for Link CConHB2
  WARNING 03: negative offset ignored for Link CDaDD90
  WARNING 03: negative offset ignored for Link CDaDD93
  WARNING 03: negative offset ignored for Link CLyTK90
  WARNING 03: negative offset ignored for Link CLyTK90
  WARNING 03: negative offset ignored for Link CSuoD41
  WARNING 03: negative offset ignored for Link CSuoD46
  WARNING 03: negative offset ignored for Link CSuoD46
  WARNING 03: negative offset ignored for Link CSuoD47
  WARNING 03: negative offset ignored for Link CSuoD47
  WARNING 03: negative offset ignored for Link MBaDa38
  WARNING 03: negative offset ignored for Link MBaDa39
  WARNING 03: negative offset ignored for Link MBaTH77a
  WARNING 03: negative offset ignored for Link MBaTH77a
  WARNING 03: negative offset ignored for Link MBaTH77b
  WARNING 03: negative offset ignored for Link MBaTH77b
  WARNING 03: negative offset ignored for Link MBaTH81
  WARNING 03: negative offset ignored for Link MBuTX84
  WARNING 03: negative offset ignored for Link MBuTX85
  WARNING 03: negative offset ignored for Link MBuTX86
  WARNING 03: negative offset ignored for Link MCaTh78
  WARNING 03: negative offset ignored for Link MCMTd71
  WARNING 03: negative offset ignored for Link MCMTd72
  WARNING 03: negative offset ignored for Link MCMTd72
  WARNING 03: negative offset ignored for Link MCMTd74
  WARNING 03: negative offset ignored for Link MCMTd74
  WARNING 03: negative offset ignored for Link MCMTd76
  WARNING 03: negative offset ignored for Link MCMTd77
  WARNING 03: negative offset ignored for Link MCMTd78
  WARNING 03: negative offset ignored for Link MCMTd78
  WARNING 03: negative offset ignored for Link MCMTd80
  WARNING 03: negative offset ignored for Link MCMTd80
  WARNING 03: negative offset ignored for Link MCMTt72a
  WARNING 03: negative offset ignored for Link MCMTt72b
  WARNING 03: negative offset ignored for Link MCMTt86a
  WARNING 03: negative offset ignored for Link MCMTt90
  WARNING 03: negative offset ignored for Link MCMTt92
  WARNING 03: negative offset ignored for Link MCMTt96
  WARNING 03: negative offset ignored for Link MCMTt97
  WARNING 03: negative offset ignored for Link MCMTt98
  WARNING 03: negative offset ignored for Link MCMTt98
  WARNING 03: negative offset ignored for Link MConHB6
  WARNING 03: negative offset ignored for Link MConHB9
  WARNING 03: negative offset ignored for Link MDBPn24a
  WARNING 03: negative offset ignored for Link MDBPn24b
  WARNING 03: negative offset ignored for Link MDBPn24c
  WARNING 03: negative offset ignored for Link MDBPn24c
  WARNING 03: negative offset ignored for Link MDBPn45
  WARNING 03: negative offset ignored for Link MDngDha
  WARNING 03: negative offset ignored for Link MDTHb31
  WARNING 03: negative offset ignored for Link MDTHn25
  WARNING 03: negative offset ignored for Link MDTHn29a
  WARNING 03: negative offset ignored for Link MHaBT45
  WARNING 03: negative offset ignored for Link MHaBT48
  WARNING 03: negative offset ignored for Link MHaBT53a
  WARNING 03: negative offset ignored for Link MHaBT56
  WARNING 03: negative offset ignored for Link MHaBT56
  WARNING 03: negative offset ignored for Link MHaBT60
  WARNING 03: negative offset ignored for Link MHDHa40
  WARNING 03: negative offset ignored for Link MHDHa41
  WARNING 03: negative offset ignored for Link MHDHa42
  WARNING 03: negative offset ignored for Link MHoaH74
  WARNING 03: negative offset ignored for Link MLChT54
  WARNING 03: negative offset ignored for Link MLChT56
  WARNING 03: negative offset ignored for Link MLChT58
  WARNING 03: negative offset ignored for Link MLeQD40
  WARNING 03: negative offset ignored for Link MLeQD40a
  WARNING 03: negative offset ignored for Link MLeVS68
  WARNING 03: negative offset ignored for Link MLeVS70
  WARNING 03: negative offset ignored for Link MLeVS78
  WARNING 03: negative offset ignored for Link MLeVS79
  WARNING 03: negative offset ignored for Link MLeVS79
  WARNING 03: negative offset ignored for Link MMDCh24a
  WARNING 03: negative offset ignored for Link MMDCh24b
  WARNING 03: negative offset ignored for Link MNgDC25a
  WARNING 03: negative offset ignored for Link MNgDC25b
  WARNING 03: negative offset ignored for Link MNgKi58
  WARNING 03: negative offset ignored for Link MNgKi58
  WARNING 03: negative offset ignored for Link MNgKi60
  WARNING 03: negative offset ignored for Link MNgVD42
  WARNING 03: negative offset ignored for Link MNgVD45a
  WARNING 03: negative offset ignored for Link MNgVD45b
  WARNING 03: negative offset ignored for Link MNgVT61
  WARNING 03: negative offset ignored for Link MNKKN54
  WARNING 03: negative offset ignored for Link MNKKN56
  WARNING 03: negative offset ignored for Link MNKKN56
  WARNING 03: negative offset ignored for Link MNKKN60
  WARNING 03: negative offset ignored for Link MNKKN60
  WARNING 03: negative offset ignored for Link MNKKN61
  WARNING 03: negative offset ignored for Link MNTMK22
  WARNING 03: negative offset ignored for Link MNTMK25
  WARNING 03: negative offset ignored for Link MPast54a
  WARNING 03: negative offset ignored for Link MPast54b
  WARNING 03: negative offset ignored for Link MPast56a
  WARNING 03: negative offset ignored for Link MPast56b
  WARNING 03: negative offset ignored for Link MPast56b
  WARNING 03: negative offset ignored for Link MPast56c
  WARNING 03: negative offset ignored for Link MPast59a
  WARNING 03: negative offset ignored for Link MPast60
  WARNING 03: negative offset ignored for Link MPast62
  WARNING 03: negative offset ignored for Link MPast62
  WARNING 03: negative offset ignored for Link MPhDP53
  WARNING 03: negative offset ignored for Link MPhNT52
  WARNING 03: negative offset ignored for Link MPhNT54
  WARNING 03: negative offset ignored for Link MPhNT57a
  WARNING 03: negative offset ignored for Link MPhNT57b
  WARNING 03: negative offset ignored for Link MPhNT57c
  WARNING 03: negative offset ignored for Link MPVHb83
  WARNING 03: negative offset ignored for Link MPVHb84
  WARNING 03: negative offset ignored for Link MPVHb85
  WARNING 03: negative offset ignored for Link MPVHb86
  WARNING 03: negative offset ignored for Link MTKDa32
  WARNING 03: negative offset ignored for Link MToHT96
  WARNING 03: negative offset ignored for Link MTruD62
  WARNING 03: negative offset ignored for Link MTruD63
  WARNING 03: negative offset ignored for Link MTruD64
  WARNING 03: negative offset ignored for Link MTruD65
  WARNING 03: negative offset ignored for Link MTruD71
  WARNING 03: negative offset ignored for Link MTruSA4
  WARNING 03: negative offset ignored for Link MTruSA4
  WARNING 03: negative offset ignored for Link MTruSA6
  WARNING 03: negative offset ignored for Link MTruSA6
  WARNING 03: negative offset ignored for Link MVoVT76b
  WARNING 03: negative offset ignored for Link MVThS70a
  WARNING 03: negative offset ignored for Link MVThS70b
  WARNING 03: negative offset ignored for Link RNgTS60
  WARNING 04: minimum elevation drop used for Conduit RNgTS60
  WARNING 02: maximum depth increased for Node JMTruSA4
  WARNING 02: maximum depth increased for Node JRNLTN22
  WARNING 02: maximum depth increased for Node JRNLTN36
  WARNING 02: maximum depth increased for Node JRNLTN43
  WARNING 02: maximum depth increased for Node JRNLTN62
  WARNING 02: maximum depth increased for Node JRNLTN70
  WARNING 02: maximum depth increased for Node JRNLTN74
  WARNING 02: maximum depth increased for Node JRNLTN86
  
  *************
  Element Count
  *************
  Number of rain gages ...... 1
  Number of subcatchments ... 228
  Number of nodes ........... 228
  Number of links ........... 333
  Number of pollutants ...... 4
  Number of land uses ....... 0
  
  
  *****************
  Pollutant Summary
  *****************
                               Ppt.      GW         Kdecay
  Name                 Units   Concen.   Concen.    1/days    CoPollutant
  -----------------------------------------------------------------------
  BOD                   MG/L     30.00      0.00      0.24
  cod                   MG/L     66.00      0.00      0.26
  fe                    MG/L      0.04      0.00      0.00
  TSS                   MG/L      5.00      0.00      0.00
  
  
  ****************
  Raingage Summary
  ****************
                                                      Data       Recording
  Name                 Data Source                    Type       Interval 
  ------------------------------------------------------------------------
  GAGE1                mua119                         VOLUME      15 min.
  
  
  ********************
  Subcatchment Summary
  ********************
  Name                       Area     Width   %Imperv    %Slope Rain Gage            Outlet              
  -----------------------------------------------------------------------------------------------------------
  CBaXe73                    8.97    448.50     65.00    0.1000 GAGE1                JCBaXe73            
  CBhBn76                   12.72    636.00     65.00    0.1000 GAGE1                JCBhBn76            
  CBhBn83                   29.40   1470.00     65.00    0.1000 GAGE1                JCBhBn83            
  CBhBn86                   12.33    616.50     65.00    0.1000 GAGE1                JCBhBn86            
  CBhBn88                   17.06    853.00     65.00    0.1000 GAGE1                JCBhBn88            
  CBhBn93                   27.02   1351.00     65.00    0.1000 GAGE1                JCBhBn93            
  CBhBn96                    8.58    429.00     65.00    0.1000 GAGE1                JCBhBn96            
  CBunB65                    2.94    147.00     65.00    0.1000 GAGE1                JCBunB65            
  CBunB67                   10.43    521.50     65.00    0.1000 GAGE1                JCBunB67            
  CBunB73                   21.45   1072.50     65.00    0.1000 GAGE1                JCBunB73            
  CBunB78                    8.25    412.50     65.00    0.1000 GAGE1                JCBunB78            
  CConHA0                   27.70   1385.00     65.00    0.1000 GAGE1                JCConHA0            
  CConHA1                   18.09    904.50     65.00    0.1000 GAGE1                JCConHA1            
  CConHA2                   34.24    684.80     65.00    0.1000 GAGE1                JCConHA2            
  CConHA6                   23.35   1167.50     65.00    0.1000 GAGE1                JCConHA6            
  CConHB2                   33.37   1668.50     65.00    0.1000 GAGE1                JCConHB2            
  CDaDD90                   20.57   1028.50     65.00    0.1000 GAGE1                JCDaDD90            
  CDaDD93                    7.76    388.00     65.00    0.1000 GAGE1                JCDaDD93            
  CDngDh                    10.36    518.00     65.00    0.1000 GAGE1                JCDngDh             
  CLyTK90                   28.91   1445.50     65.00    0.1000 GAGE1                JCLyTK90            
  CMieN28                    8.79    439.50     65.00    0.1000 GAGE1                JCMieN28            
  CMieN35                   10.01    500.50     65.00    0.1000 GAGE1                JCMieN35            
  CNgTH92                   23.53   1176.50     65.00    0.1000 GAGE1                JCNgTH92            
  CPhXL42                   18.96    948.00     65.00    0.1000 GAGE1                JCPhXL42            
  CPhXL46                   15.47    773.50     65.00    0.1000 GAGE1                JCPhXL46            
  CPhXL52                   30.04   1502.00     65.00    0.1000 GAGE1                JCPhXL52            
  CSuoD38                   28.84   1442.00     65.00    0.1000 GAGE1                JCSuoD38            
  CSuoD41                   15.71    785.50     65.00    0.1000 GAGE1                JCSuoD41            
  CSuoD46                   17.04    852.00     65.00    0.1000 GAGE1                JCSuoD46            
  CSuoD47                   11.95    597.50     65.00    0.1000 GAGE1                JCSuoD47            
  CSuoD48                   17.46    873.00     65.00    0.1000 GAGE1                JCSuoD48            
  MBacD68                   50.12   2506.00     50.00    0.1000 GAGE1                JMBacD68            
  MBaDa39                    4.11    205.50     65.00    0.1000 GAGE1                JMBaDa39            
  MBaTH77                   11.11    555.50     65.00    0.1000 GAGE1                JMBaTH77            
  MBaTH84                   13.12    656.00     65.00    0.1000 GAGE1                JMBaTH84            
  MBaVT89                   28.04   1402.00     65.00    0.1000 GAGE1                JMBaVT89            
  MBHTQ67                    3.86    193.00     65.00    0.1000 GAGE1                JMBHTQ67            
  MBuTX84                   10.67    533.50     65.00    0.1000 GAGE1                JMBuTX84            
  MBuTX85                    7.02    351.00     65.00    0.1000 GAGE1                JMBuTX85            
  MBuTX86                    2.83    141.50     65.00    0.1000 GAGE1                JMBuTX86            
  MCMTd71                    8.60    430.00     65.00    0.1000 GAGE1                JMCMTd71            
  MCMTd72                    1.99     99.50     65.00    0.1000 GAGE1                JMCMTd72            
  MCMTd76                    2.56    128.00     65.00    0.1000 GAGE1                JMCMTd76            
  MCMTd78                    5.17    258.50     65.00    0.1000 GAGE1                JMCMTd78            
  MCMTd80                    6.67    333.50     65.00    0.1000 GAGE1                JMCMTd80            
  MCMTt69                   17.31    865.50     65.00    0.1000 GAGE1                JMCMTt69            
  MCMTt72                   19.13    956.50     65.00    0.1000 GAGE1                JMCMTt72            
  MCMTt76                   13.63    681.50     65.00    0.1000 GAGE1                JMCMTt76            
  MCMTt80                   14.39    719.50     65.00    0.1000 GAGE1                JMCMTt80            
  MCMTt84                   11.47    573.50     65.00    0.1000 GAGE1                JMCMTt84            
  MCMTt86                   10.11    505.50     65.00    0.1000 GAGE1                JMCMTt86            
  MCMTt90                   13.42    671.00     65.00    0.1000 GAGE1                JMCMTt90            
  MCMTt92                   24.70   1235.00     65.00    0.1000 GAGE1                JMCMTt92            
  MCMTt94                   17.28    864.00     65.00    0.1000 GAGE1                JMCMTt94            
  MCMTt96                    3.70    185.00     65.00    0.1000 GAGE1                JMCMTt96            
  MCMTt98                    2.51    125.50     65.00    0.1000 GAGE1                JMCMTt98            
  MConHA3                   23.70   1185.00     65.00    0.1000 GAGE1                JMConHA3            
  MConHB6                   13.80    690.00     65.00    0.1000 GAGE1                JMConHB6            
  MConHB9                   23.20   1160.00     65.00    0.1000 GAGE1                JMConHB9            
  MDaVN83                   27.00   1350.00     65.00    0.1000 GAGE1                JMDaVN83            
  MDBPb23                   22.88   1144.00     65.00    0.1000 GAGE1                JMDBPb23            
  MDBPb28                   17.17    608.50     65.00    0.1000 GAGE1                JMDBPb28            
  MDBPn24                    6.55    327.50     65.00    0.1000 GAGE1                JMDBPn24            
  MDBPn27                    3.89    194.50     65.00    0.1000 GAGE1                JMDBPn27            
  MDBPn36                    2.82    141.00     65.00    0.1000 GAGE1                JMDBPn36            
  MDBPn40                    2.41    120.50     65.00    0.1000 GAGE1                JMDBPn40            
  MDBPn42                    2.45    122.50     65.00    0.1000 GAGE1                JMDBPn42            
  MDBPn44                    2.42    121.00     65.00    0.1000 GAGE1                JMDBPn44            
  MDBPn45                   10.44    522.00     65.00    0.1000 GAGE1                JMDBPn45            
  MDBPn50                    7.37    368.50     65.00    0.1000 GAGE1                JMDBPn50            
  MDLNK61                   36.44   1822.00     50.00    0.1000 GAGE1                JMDLNK61            
  MDLNK69                   33.94   1697.00     50.00    0.1000 GAGE1                JMDLNK69            
  MDLNK73                   23.16   1158.00     65.00    0.1000 GAGE1                JMDLNK73            
  MDTHb31                   10.56    528.00     65.00    0.1000 GAGE1                JMDTHb31            
  MDTHn24                    9.95    497.50     65.00    0.1000 GAGE1                JMDTHn24            
  MDTHn26                    9.06    453.00     65.00    0.1000 GAGE1                JMDTHn26            
  MDTHn29                   13.34    667.00     65.00    0.1000 GAGE1                JMDTHn29            
  MHaBT45                    5.50    275.00     65.00    0.1000 GAGE1                JMHaBT45            
  MHaBT48                   11.08    554.00     65.00    0.1000 GAGE1                JMHaBT48            
  MHaBT51                    8.27    413.50     65.00    0.1000 GAGE1                JMHaBT51            
  MHaBT53                    3.93    196.50     65.00    0.1000 GAGE1                JMHaBT53            
  MHaBT56                    3.16    158.00     65.00    0.1000 GAGE1                JMHaBT56            
  MHaBT60                    4.52    226.00     65.00    0.1000 GAGE1                JMHaBT60            
  MHaBT61                    7.39    369.50     65.00    0.1000 GAGE1                JMHaBT61            
  MHDHa40                   22.91    895.50     65.00    0.1000 GAGE1                JMHDHa40            
  MHDHa41                   12.39    619.50     65.00    0.1000 GAGE1                JMHDHa41            
  MHDHa42                   13.10    655.00     65.00    0.1000 GAGE1                JMHDHa42            
  MHoaH74                   31.45   1572.50     65.00    0.1000 GAGE1                JMHoaH74            
  MHoHT38                   14.95    747.50     65.00    0.1000 GAGE1                JMHoHT38            
  MHoHT40                   24.08   1204.00     65.00    0.1000 GAGE1                JMHoHT40            
  MHoHT42                   23.17   1158.50     65.00    0.1000 GAGE1                JMHoHT42            
  MHoHT50                   37.98   1899.00     65.00    0.1000 GAGE1                JMHoHT50            
  MHoHTB2                   33.77   1688.50     65.00    0.1000 GAGE1                JMHoHTB2            
  MHoVT56                   39.94   1997.00     30.00    0.1000 GAGE1                JMHoVT56            
  MHoVT59                   17.90    895.00     60.00    0.1000 GAGE1                JMHoVT59            
  MLChT46                    6.99    349.50     65.00    0.1000 GAGE1                JMLChT46            
  MLChT54                    9.53    476.50     65.00    0.1000 GAGE1                JMLChT54            
  MLChT58                    3.27    163.50     65.00    0.1000 GAGE1                JMLChT58            
  MLChT60                    2.71    135.50     65.00    0.1000 GAGE1                JMLChT60            
  MLeQD38                   12.55    627.50     65.00    0.1000 GAGE1                JMLeQD38            
  MLeQD40                    4.61    230.50     65.00    0.1000 GAGE1                JMLeQD40            
  MLeQD49                   36.28   1814.00     65.00    0.1000 GAGE1                JMLeQD49            
  MLeQD52                   22.07   1103.50     65.00    0.1000 GAGE1                JMLeQD52            
  MLeQD60                   20.65   1032.50     65.00    0.1000 GAGE1                JMLeQD60            
  MLeVS61                   21.01   1050.50     65.00    0.1000 GAGE1                JMLeVS61            
  MLeVS68                   27.12   1356.00     65.00    0.1000 GAGE1                JMLeVS68            
  MLeVS75                    7.01    350.50     65.00    0.1000 GAGE1                JMLeVS75            
  MLeVS78                    4.60    230.00     65.00    0.1000 GAGE1                JMLeVS78            
  MLeVS79                    7.17    358.50     65.00    0.1000 GAGE1                JMLeVS79            
  MLyTKA4                   31.88   1594.00     65.00    0.1000 GAGE1                JMLyTKA4            
  MMDCh24                    3.64    182.00     65.00    0.1000 GAGE1                JMMDCh24            
  MNgDC25                    6.67    333.50     65.00    0.1000 GAGE1                JMNgDC25            
  MNgDC26                    2.91    145.50     65.00    0.1000 GAGE1                JMNgDC26            
  MNgDC68                    3.94    197.00     65.00    0.1000 GAGE1                JMNgDC68            
  MNgDC72                    3.73    186.50     65.00    0.1000 GAGE1                JMNgDC72            
  MNgDC74                    4.18    209.00     65.00    0.1000 GAGE1                JMNgDC74            
  MNgDC77                   10.26    513.00     65.00    0.1000 GAGE1                JMNgDC77            
  MNgDC81                    6.81    340.50     65.00    0.1000 GAGE1                JMNgDC81            
  MNgKi60                   34.15   1707.50     50.00    0.1000 GAGE1                JMNgKi60            
  MNgTh68                    4.90    245.00     65.00    0.1000 GAGE1                JMNgTh68            
  MNgTh69                    3.67    183.50     65.00    0.1000 GAGE1                JMNgTh69            
  MNgTN66                    4.19    209.50     65.00    0.1000 GAGE1                JMNgTN66            
  MNgTN68                    2.80    140.00     65.00    0.1000 GAGE1                JMNgTN68            
  MNgTN72                    2.93    146.50     65.00    0.1000 GAGE1                JMNgTN72            
  MNgTN74                    2.82    141.00     65.00    0.1000 GAGE1                JMNgTN74            
  MNgTN75                    2.91    145.50     65.00    0.1000 GAGE1                JMNgTN75            
  MNgVD42                   14.15    707.50     65.00    0.1000 GAGE1                JMNgVD42            
  MNgVD45                   14.68    734.00     65.00    0.1000 GAGE1                JMNgVD45            
  MNgVT50                   25.55   1277.50     65.00    0.1000 GAGE1                JMNgVT50            
  MNgVT57                   30.73   1536.50     65.00    0.1000 GAGE1                JMNgVT57            
  MNKKN54                   10.05    502.50     65.00    0.1000 GAGE1                JMNKKN54            
  MNKKN56                   10.88    544.00     65.00    0.1000 GAGE1                JMNKKN56            
  MNKKN60                    5.38    269.00     65.00    0.1000 GAGE1                JMNKKN60            
  MNKKN61                    2.24    112.00     65.00    0.1000 GAGE1                JMNKKN61            
  MNKKN62                    2.42    121.00     65.00    0.1000 GAGE1                JMNKKN62            
  MNKKN63                    3.09    154.50     65.00    0.1000 GAGE1                JMNKKN63            
  MNKKN64                    3.70    185.00     65.00    0.1000 GAGE1                JMNKKN64            
  MNKKN66                    3.65    182.50     65.00    0.1000 GAGE1                JMNKKN66            
  MNKKN67                    4.60    230.00     65.00    0.1000 GAGE1                JMNKKN67            
  MNTMK25                   14.30    715.00     65.00    0.1000 GAGE1                JMNTMK25            
  MPast54                    6.01    300.50     65.00    0.1000 GAGE1                JMPast54            
  MPast56                    3.91    195.50     65.00    0.1000 GAGE1                JMPast56            
  MPast59                    3.55    177.50     65.00    0.1000 GAGE1                JMPast59            
  MPast60                    3.35    167.50     65.00    0.1000 GAGE1                JMPast60            
  MPast62                    4.07    203.50     65.00    0.1000 GAGE1                JMPast62            
  MPhDP48                   22.72   1136.00     65.00    0.1000 GAGE1                JMPhDP48            
  MPhDP53                    9.36    468.00     65.00    0.1000 GAGE1                JMPhDP53            
  MPhNT52                    4.88    244.00     65.00    0.1000 GAGE1                JMPhNT52            
  MPhNT54                    4.58    229.00     65.00    0.1000 GAGE1                JMPhNT54            
  MPhNT57                    5.07    253.50     65.00    0.1000 GAGE1                JMPhNT57            
  MPKhK26                    2.88    144.00     65.00    0.1000 GAGE1                JMPKhK26            
  MPVHb84                   12.38    619.00     65.00    0.1000 GAGE1                JMPVHb84            
  MPVHb86                    4.80    240.00     65.00    0.1000 GAGE1                JMPVHb86            
  MPVHb88                   14.54    727.00     30.00    0.1000 GAGE1                JMPVHb88            
  MTKDa32                    5.13    256.50     65.00    0.1000 GAGE1                JMTKDa32            
  MToHT96                    9.89    494.50     65.00    0.1000 GAGE1                JMToHT96            
  MToHT98                   17.19    859.50     65.00    0.1000 GAGE1                JMToHT98            
  MToHT99                   19.62    981.00     65.00    0.1000 GAGE1                JMToHT99            
  MTQDb67                    5.69    284.50     65.00    0.1000 GAGE1                JMTQDb67            
  MTQDn63                    5.56    278.00     65.00    0.1000 GAGE1                JMTQDn63            
  MTrKC34                   12.70    635.00     65.00    0.1000 GAGE1                JMTrKC34            
  MTrND36                    5.65    282.50     65.00    0.1000 GAGE1                JMTrND36            
  MTrQT59                    6.39    319.50     65.00    0.1000 GAGE1                JMTrQT59            
  MTruD62                    3.89    194.50     65.00    0.1000 GAGE1                JMTruD62            
  MTruD63                    4.28    214.00     65.00    0.1000 GAGE1                JMTruD63            
  MTruD64                    3.63    181.50     65.00    0.1000 GAGE1                JMTruD64            
  MTruD65                    2.27    113.50     65.00    0.1000 GAGE1                JMTruD65            
  MTruD67                    2.52    126.00     65.00    0.1000 GAGE1                JMTruD67            
  MTruD70                    2.52    126.00     65.00    0.1000 GAGE1                JMTruD70            
  MTruD71                    1.89     94.50     65.00    0.1000 GAGE1                JMTruD71            
  MTruD72                    1.96     98.00     65.00    0.1000 GAGE1                JMTruD72            
  MTruSA0                   14.99    749.50     65.00    0.1000 GAGE1                JMTruSA0            
  MTruSA2                   45.37   2268.50     60.00    0.1000 GAGE1                JMTruSA2            
  MTruSA4                  102.00   3447.00     65.00    0.1000 GAGE1                JMTruSA4            
  MTruSA6                  100.00   6684.00     10.00    0.1000 GAGE1                JMTruSA6            
  MTSN2A6                  144.36   1443.60     30.00    0.1000 GAGE1                JMTSN2A6            
  MTuXg64                    2.99    149.50     65.00    0.1000 GAGE1                JMTuXg64            
  MTuXg66                    2.35    117.50     65.00    0.1000 GAGE1                JMTuXg66            
  MTuXg70                    2.05    102.50     65.00    0.1000 GAGE1                JMTuXg70            
  MTuXg72                    2.08    104.00     65.00    0.1000 GAGE1                JMTuXg72            
  MVaKi28                   10.68    534.00     65.00    0.1000 GAGE1                JMVaKi28            
  MVoVT70                    8.10    405.00     65.00    0.1000 GAGE1                JMVoVT70            
  MVoVT72                    5.72    286.00     65.00    0.1000 GAGE1                JMVoVT72            
  MVoVT74                    5.17    258.50     65.00    0.1000 GAGE1                JMVoVT74            
  MVoVT78                    8.01    400.50     65.00    0.1000 GAGE1                JMVoVT78            
  MVThS62                    5.01    250.50     65.00    0.1000 GAGE1                JMVThS62            
  MVThS64                    4.41    220.50     65.00    0.1000 GAGE1                JMVThS64            
  MVThS66                    2.67    133.50     65.00    0.1000 GAGE1                JMVThS66            
  MVThS68                    2.12    106.00     65.00    0.1000 GAGE1                JMVThS68            
  MVThS70                    2.28    114.00     65.00    0.1000 GAGE1                JMVThS70            
  MXVNT30                   28.41   1920.50     65.00    0.1000 GAGE1                JMXVNT30            
  RCsCb25                   13.57    678.50     65.00    0.1000 GAGE1                JRCsCb25            
  RCsCb26                   11.19    559.50     65.00    0.1000 GAGE1                JRCsCb26            
  RCsCb31                   21.40    820.00     65.00    0.1000 GAGE1                JRCsCb31            
  RCsCb36                   14.31    465.50     65.00    0.1000 GAGE1                JRCsCb36            
  RCsCb38                   13.68    434.00     65.00    0.1000 GAGE1                JRCsCb38            
  RCsCb46                   15.11   2655.50     65.00    0.1000 GAGE1                JRCsCb46            
  RNgTS53                   50.95   2547.50     50.00    0.1000 GAGE1                JRNgTS53            
  RNgTS62                   66.83   3341.50     65.00    0.1000 GAGE1                JRNgTS62            
  RNLTN00                    6.75    337.50     65.00    0.1000 GAGE1                JRNLTN02            
  RNLTN02                   15.33    766.50     65.00    0.1000 GAGE1                JRNLTN02            
  RNLTN06                   19.48    974.00     65.00    0.1000 GAGE1                JRNLTN06            
  RNLTN11                   27.45   1372.50     65.00    0.1000 GAGE1                JRNLTN11            
  RNLTN12                   12.57    628.50     65.00    0.1000 GAGE1                JRNLTN12            
  RNLTN15                   15.23    761.50     65.00    0.1000 GAGE1                JRNLTN15            
  RNLTN18                   15.25    762.50     65.00    0.1000 GAGE1                JRNLTN18            
  RNLTN20                    7.73    386.50     65.00    0.1000 GAGE1                JRNLTN20            
  RNLTN21                    5.06    253.00     65.00    0.1000 GAGE1                JRNLTN21            
  RNLTN22                    6.71    335.50     65.00    0.1000 GAGE1                JRNLTN22            
  RNLTN26                    7.63    381.50     65.00    0.1000 GAGE1                JRNLTN26            
  RNLTN30                   13.92    696.00     65.00    0.1000 GAGE1                JRNLTN30            
  RNLTN32                    6.37    318.50     65.00    0.1000 GAGE1                JRNLTN32            
  RNLTN36                   12.34    617.00     65.00    0.1000 GAGE1                JRNLTN36            
  RNLTN43                   11.10    555.00     65.00    0.1000 GAGE1                JRNLTN43            
  RNLTN48                   16.45    822.50     65.00    0.1000 GAGE1                JRNLTN48            
  RNLTN57                   10.10    505.00     65.00    0.1000 GAGE1                JRNLTN57            
  RNLTN61                    5.69    284.50     65.00    0.1000 GAGE1                JRNLTN61            
  RNLTN62                    3.96    198.00     65.00    0.1000 GAGE1                JRNLTN62            
  RNLTN66                   13.92    696.00     65.00    0.1000 GAGE1                JRNLTN66            
  RNLTN70                   14.98    749.00     65.00    0.1000 GAGE1                JRNLTN70            
  RNLTN71                    8.90    445.00     65.00    0.1000 GAGE1                JRNLTN71            
  RNLTN74                   12.08    604.00     65.00    0.1000 GAGE1                JRNLTN74            
  RNLTN78                   16.88    844.00     65.00    0.1000 GAGE1                JRNLTN78            
  RNLTN83                   11.24    562.00     65.00    0.1000 GAGE1                JRNLTN83            
  RNLTN86                   16.98    849.00     65.00    0.1000 GAGE1                JRNLTN86            
  RPhVH26                   29.87    993.50     65.00    0.1000 GAGE1                JRPhVH26            
  RVanT06                   56.25   2812.50     65.00    0.1000 GAGE1                JRVanT06            
  RVanT18                   73.93   3696.50     65.00    0.1000 GAGE1                JRVanT18            


  *******************
  LID Control Summary
  *******************
                                   No. of        Unit        Unit      % Area    % Imperv      % Perv
  Subcatchment     LID Control      Units        Area       Width     Covered     Treated     Treated
  ---------------------------------------------------------------------------------------------------
  MHoaH74          GreenRoofs        1102      100.00        0.00       35.04       59.00        0.00
  MLeQD38          GreenRoofs         406      100.00        0.00       32.35       53.00        0.00
  MTruSA4          RWH               2726      100.00        0.00       26.73       46.00        0.00
  
  
  ************
  Node Summary
  ************
                                           Invert      Max.    Ponded    External
  Name                 Type                 Elev.     Depth      Area    Inflow  
  -------------------------------------------------------------------------------
  JCBaXe73             JUNCTION             -0.60      3.60   89700.0    Yes
  JCBhBn76             JUNCTION             -0.04      3.04  127200.0    Yes
  JCBhBn83             JUNCTION              0.32      2.69  294000.0    Yes
  JCBhBn86             JUNCTION              0.60      2.70  123300.0    Yes
  JCBhBn88             JUNCTION              0.78      2.52  170600.0    Yes
  JCBhBn93             JUNCTION              1.13      2.07  270200.0    Yes
  JCBhBn96             JUNCTION              1.33      2.27   85800.0    Yes
  JCBunB65             JUNCTION             -0.19      2.79   29400.0    Yes
  JCBunB67             JUNCTION              0.44      2.96  104300.0    Yes
  JCBunB73             JUNCTION              1.00      2.40  214500.0    Yes
  JCBunB78             JUNCTION              1.59      1.61   82500.0    Yes
  JCConHA0             JUNCTION              1.59      3.31  277000.0    Yes
  JCConHA1             JUNCTION              1.74      3.26  180900.0    Yes
  JCConHA2             JUNCTION              1.74      3.26 6848000.0    Yes
  JCConHA6             JUNCTION              2.16      4.24  233500.0    Yes
  JCConHB2             JUNCTION              2.54      3.76  333700.0    Yes
  JCDaDD90             JUNCTION             -0.05      5.05  205700.0    Yes
  JCDaDD93             JUNCTION              0.97      3.93   77600.0    Yes
  JCDngDh              JUNCTION              1.13      3.57    4000.0    Yes
  JCLyTK90             JUNCTION              0.84      3.66  289100.0    Yes
  JCMieN28             JUNCTION             -1.44      3.44   87900.0    Yes
  JCMieN35             JUNCTION             -0.09      4.39  100100.0    Yes
  JCNgTH92             JUNCTION              0.80      3.00  235300.0    Yes
  JCPhXL42             JUNCTION              1.30      3.90  189600.0    Yes
  JCPhXL46             JUNCTION              1.01      4.00  154700.0    Yes
  JCPhXL52             JUNCTION              3.00      3.00  300400.0    Yes
  JCSuoD38             JUNCTION             -0.78      2.98  288400.0    Yes
  JCSuoD41             JUNCTION              0.92      3.19  157100.0    Yes
  JCSuoD46             JUNCTION              3.11      3.79  170400.0    Yes
  JCSuoD47             JUNCTION              2.47      5.53  119500.0    Yes
  JCSuoD48             JUNCTION              2.71      5.29  170600.0    Yes
  JMBacD68             JUNCTION              6.60      2.80  501200.0    Yes
  JMBaDa39             JUNCTION              1.22      2.09   41100.0    Yes
  JMBaTH77             JUNCTION              1.31      1.99  111100.0    Yes
  JMBaTH84             JUNCTION              1.80      1.50  131100.0    Yes
  JMBaVT89             JUNCTION              0.09      5.31  280400.0    Yes
  JMBHTQ67             JUNCTION              0.80      1.70   38600.0    Yes
  JMBuTX84             JUNCTION             -0.13      5.13  106700.0    Yes
  JMBuTX85             JUNCTION              1.01      4.49   70200.0    Yes
  JMBuTX86             JUNCTION              2.95      3.05   28300.0    Yes
  JMCMTd71             JUNCTION              0.79      2.51   86000.0    Yes
  JMCMTd72             JUNCTION              1.07      3.13   19900.0    Yes
  JMCMTd76             JUNCTION              1.47      3.43   25600.0    Yes
  JMCMTd78             JUNCTION              1.78      3.22   51700.0    Yes
  JMCMTd80             JUNCTION              1.92      3.28   66700.0    Yes
  JMCMTt69             JUNCTION              0.75      3.25  173100.0    Yes
  JMCMTt72             JUNCTION             -0.03      3.33  191300.0    Yes
  JMCMTt76             JUNCTION             -0.25      3.15  136300.0    Yes
  JMCMTt80             JUNCTION              0.20      2.70  143900.0    Yes
  JMCMTt84             JUNCTION             -0.44      4.44  114700.0    Yes
  JMCMTt86             JUNCTION             -1.09      5.19  101100.0    Yes
  JMCMTt90             JUNCTION             -0.23      4.33  134200.0    Yes
  JMCMTt92             JUNCTION              0.58      3.62  247000.0    Yes
  JMCMTt94             JUNCTION              2.18      3.32  172800.0    Yes
  JMCMTt96             JUNCTION              2.43      3.28   37000.0    Yes
  JMCMTt98             JUNCTION              2.79      3.62   25100.0    Yes
  JMConHA3             JUNCTION              2.00      3.80  237000.0    Yes
  JMConHB6             JUNCTION              2.86      3.44   13800.0    Yes
  JMConHB9             JUNCTION              3.19      3.21  232000.0    Yes
  JMDaVN83             JUNCTION              0.83      3.17  270000.0    Yes
  JMDBPb23             JUNCTION             -0.73      2.83  228800.0    Yes
  JMDBPb28             JUNCTION              0.24      2.26  171700.0    Yes
  JMDBPn24             JUNCTION              5.60      1.50   65500.0    Yes
  JMDBPn27             JUNCTION              4.64      2.66   38900.0    Yes
  JMDBPn36             JUNCTION              0.09      5.01   28200.0    Yes
  JMDBPn40             JUNCTION              1.55      3.05   24100.0    Yes
  JMDBPn42             JUNCTION              2.00      2.90   24500.0    Yes
  JMDBPn44             JUNCTION              1.19      3.01   24200.0    Yes
  JMDBPn45             JUNCTION              1.20      3.10  104400.0    Yes
  JMDBPn50             JUNCTION              1.46      2.64   73700.0    Yes
  JMDLNK61             JUNCTION              4.28      4.32  364400.0    Yes
  JMDLNK69             JUNCTION              5.30      4.00  339400.0    Yes
  JMDLNK73             JUNCTION              6.70      3.10  231600.0    Yes
  JMDTHb31             JUNCTION              0.68      3.83  105600.0    Yes
  JMDTHn24             JUNCTION             -0.74      4.84   99500.0    Yes
  JMDTHn26             JUNCTION              3.01      2.59   90600.0    Yes
  JMDTHn29             JUNCTION              3.88      5.32  133400.0    Yes
  JMHaBT45             JUNCTION             -0.48      4.98   55000.0    Yes
  JMHaBT48             JUNCTION              0.53      4.37  110800.0    Yes
  JMHaBT51             JUNCTION              1.57      3.63   82700.0    Yes
  JMHaBT53             JUNCTION              2.41      3.99   39300.0    Yes
  JMHaBT56             JUNCTION              3.82      4.88   31600.0    Yes
  JMHaBT60             JUNCTION              4.90      4.60   45200.0    Yes
  JMHaBT61             JUNCTION              5.54      4.06   73900.0    Yes
  JMHDHa40             JUNCTION              2.20      1.70  229100.0    Yes
  JMHDHa41             JUNCTION              3.55      2.26  123900.0    Yes
  JMHDHa42             JUNCTION              2.01      3.59  131000.0    Yes
  JMHoaH74             JUNCTION              1.26      1.74  315400.0    Yes
  JMHoHT38             JUNCTION             -0.08      5.08  149500.0    Yes
  JMHoHT40             JUNCTION              2.57      2.93  240800.0    Yes
  JMHoHT42             JUNCTION              5.61      3.19  231700.0    Yes
  JMHoHT50             JUNCTION              6.70      2.50  379800.0    Yes
  JMHoHTB2             JUNCTION              1.62      3.48  337700.0    Yes
  JMHoVT56             JUNCTION              3.50      2.50  399400.0    Yes
  JMHoVT59             JUNCTION              2.80      2.90  175900.0    Yes
  JMLChT46             JUNCTION              1.74      2.06   69900.0    Yes
  JMLChT54             JUNCTION             -0.71      4.81   95300.0    Yes
  JMLChT58             JUNCTION              0.32      2.88   32700.0    Yes
  JMLChT60             JUNCTION              0.60      2.80   27100.0    Yes
  JMLeQD38             JUNCTION             -0.50      2.60  125500.0    Yes
  JMLeQD40             JUNCTION             -0.30      4.70   46100.0    Yes
  JMLeQD49             JUNCTION              4.11      5.09  362800.0    Yes
  JMLeQD52             JUNCTION              4.95      4.65  220700.0    Yes
  JMLeQD60             JUNCTION              6.60      3.20  206500.0    Yes
  JMLeVS61             JUNCTION             -0.85      3.15  210100.0    Yes
  JMLeVS68             JUNCTION              0.43      3.97  271200.0    Yes
  JMLeVS75             JUNCTION              1.43      3.57   70100.0    Yes
  JMLeVS78             JUNCTION              1.73      3.77   46000.0    Yes
  JMLeVS79             JUNCTION              1.95      3.85   71700.0    Yes
  JMLyTKA4             JUNCTION              1.97      4.13  318800.0    Yes
  JMMDCh24             JUNCTION              5.83      1.97   36400.0    Yes
  JMNgDC25             JUNCTION              5.12      3.19   66700.0    Yes
  JMNgDC26             JUNCTION              5.00      3.60   29100.0    Yes
  JMNgDC68             JUNCTION              0.44      4.56   39400.0    Yes
  JMNgDC72             JUNCTION              3.04      1.86   37300.0    Yes
  JMNgDC74             JUNCTION              1.60      3.40   41800.0    Yes
  JMNgDC77             JUNCTION              1.57      3.13  102600.0    Yes
  JMNgDC81             JUNCTION              1.86      2.74   68100.0    Yes
  JMNgKi60             JUNCTION              2.10      6.51  341500.0    Yes
  JMNgTh68             JUNCTION              1.00      1.30   49000.0    Yes
  JMNgTh69             JUNCTION              1.20      1.30   36700.0    Yes
  JMNgTN66             JUNCTION              1.30      3.90   41900.0    Yes
  JMNgTN68             JUNCTION              0.26      4.54   28000.0    Yes
  JMNgTN72             JUNCTION              1.70      3.10   29300.0    Yes
  JMNgTN74             JUNCTION              2.27      2.53   28200.0    Yes
  JMNgTN75             JUNCTION              2.50      2.30   29100.0    Yes
  JMNgVD42             JUNCTION              3.50      2.91  141500.0    Yes
  JMNgVD45             JUNCTION              4.31      2.39  146800.0    Yes
  JMNgVT50             JUNCTION             -1.06      4.76  255500.0    Yes
  JMNgVT57             JUNCTION              0.75      5.35  307300.0    Yes
  JMNKKN54             JUNCTION             -0.10      3.60  100500.0    Yes
  JMNKKN56             JUNCTION              0.27      3.83  108800.0    Yes
  JMNKKN60             JUNCTION              2.14      2.77   53800.0    Yes
  JMNKKN61             JUNCTION              1.67      3.53   22400.0    Yes
  JMNKKN62             JUNCTION              2.69      2.71   24200.0    Yes
  JMNKKN63             JUNCTION              1.80      3.80   30900.0    Yes
  JMNKKN64             JUNCTION              3.38      2.42   37000.0    Yes
  JMNKKN66             JUNCTION              4.32      2.98   36500.0    Yes
  JMNKKN67             JUNCTION              4.77      2.83   46000.0    Yes
  JMNTMK25             JUNCTION              3.63      5.67  143000.0    Yes
  JMPast54             JUNCTION              1.99      2.21   60100.0    Yes
  JMPast56             JUNCTION              3.07      1.94   39100.0    Yes
  JMPast59             JUNCTION              4.27      2.43   35500.0    Yes
  JMPast60             JUNCTION              5.10      2.30   33500.0    Yes
  JMPast62             JUNCTION              5.93      2.17   40700.0    Yes
  JMPhDP48             JUNCTION             -0.26      4.96  227200.0    Yes
  JMPhDP53             JUNCTION              2.02      2.68   93600.0    Yes
  JMPhNT52             JUNCTION              1.82      2.39   48800.0    Yes
  JMPhNT54             JUNCTION              3.06      2.04   45800.0    Yes
  JMPhNT57             JUNCTION              5.26      2.14   50700.0    Yes
  JMPKhK26             JUNCTION              5.34      1.96   28800.0    Yes
  JMPVHb84             JUNCTION             -0.23      5.23  123800.0    Yes
  JMPVHb86             JUNCTION              0.63      4.37   48000.0    Yes
  JMPVHb88             JUNCTION              1.93      4.07  145400.0    Yes
  JMTKDa32             JUNCTION             -0.04      2.04   51300.0    Yes
  JMToHT96             JUNCTION              1.02      2.48   98900.0    Yes
  JMToHT98             JUNCTION              1.32      2.38  171900.0    Yes
  JMToHT99             JUNCTION              1.60      3.00  169200.0    Yes
  JMTQDb67             JUNCTION             -0.22      2.52   56900.0    Yes
  JMTQDn63             JUNCTION              0.10      3.40   55600.0    Yes
  JMTrKC34             JUNCTION             -0.38      2.78  127000.0    Yes
  JMTrND36             JUNCTION             -0.22      2.32   56500.0    Yes
  JMTrQT59             JUNCTION             -1.07      3.37   63900.0    Yes
  JMTruD62             JUNCTION             -0.05      2.95   38900.0    Yes
  JMTruD63             JUNCTION              0.08      3.52   42800.0    Yes
  JMTruD64             JUNCTION              1.52      2.68   36300.0    Yes
  JMTruD65             JUNCTION              1.76      2.64   22700.0    Yes
  JMTruD67             JUNCTION              2.00      2.90   25200.0    Yes
  JMTruD70             JUNCTION              2.35      2.35   25200.0    Yes
  JMTruD71             JUNCTION              2.63      2.08   18900.0    Yes
  JMTruD72             JUNCTION              3.14      1.76   19600.0    Yes
  JMTruSA0             JUNCTION              1.38      4.32    4000.0    Yes
  JMTruSA2             JUNCTION              4.60      2.90  453700.0    Yes
  JMTruSA4             JUNCTION              6.60      2.00 1020000.0    Yes
  JMTruSA6             JUNCTION              6.00      3.90 1000000.0    Yes
  JMTSN2A6             JUNCTION              4.60      2.40 1443600.0    Yes
  JMTuXg64             JUNCTION              0.99      3.81   29900.0    Yes
  JMTuXg66             JUNCTION             -0.05      4.65   23500.0    Yes
  JMTuXg70             JUNCTION              1.35      2.85   20500.0    Yes
  JMTuXg72             JUNCTION              1.65      2.25   20800.0    Yes
  JMVaKi28             JUNCTION             -1.34      3.34  106800.0    Yes
  JMVoVT70             JUNCTION              0.62      5.28   81000.0    Yes
  JMVoVT72             JUNCTION              4.49      1.01   57200.0    Yes
  JMVoVT74             JUNCTION              4.22      1.28   51700.0    Yes
  JMVoVT78             JUNCTION              1.63      3.67   80100.0    Yes
  JMVThS62             JUNCTION              2.51      2.19   50100.0    Yes
  JMVThS64             JUNCTION             -0.20      4.60   44100.0    Yes
  JMVThS66             JUNCTION              1.43      2.57   26700.0    Yes
  JMVThS68             JUNCTION              1.45      2.25   21200.0    Yes
  JMVThS70             JUNCTION              2.21      2.00   22800.0    Yes
  JMXVNT30             JUNCTION              0.82      1.98  284100.0    Yes
  JRCsCb25             JUNCTION             -2.00      4.00  135700.0    Yes
  JRCsCb26             JUNCTION             -1.90      3.90  111900.0    Yes
  JRCsCb31             JUNCTION             -1.80      3.80  214000.0    Yes
  JRCsCb36             JUNCTION             -1.75      3.75  143100.0    Yes
  JRCsCb38             JUNCTION             -1.70      3.70  136800.0    Yes
  JRCsCb46             JUNCTION             -1.69      3.69  151100.0    Yes
  JRNgTS53             JUNCTION              4.50      4.00  509500.0    Yes
  JRNgTS62             JUNCTION              5.90      4.60  668300.0    Yes
  JRNLTN02             JUNCTION             -5.30      7.50  153300.0    Yes
  JRNLTN06             JUNCTION             -5.21      7.41  194800.0    Yes
  JRNLTN11             JUNCTION             -5.08      7.28  274500.0    Yes
  JRNLTN12             JUNCTION             -5.04      7.24  125700.0    Yes
  JRNLTN15             JUNCTION             -4.96      7.16  152300.0    Yes
  JRNLTN18             JUNCTION             -4.86      7.06  152500.0    Yes
  JRNLTN20             JUNCTION             -4.79      6.99   77300.0    Yes
  JRNLTN21             JUNCTION             -4.76      6.96   50600.0    Yes
  JRNLTN22             JUNCTION             -4.73      6.93   67100.0    Yes
  JRNLTN26             JUNCTION             -4.62      6.82   76300.0    Yes
  JRNLTN30             JUNCTION             -4.50      6.70  139200.0    Yes
  JRNLTN32             JUNCTION             -4.45      6.65   63700.0    Yes
  JRNLTN36             JUNCTION             -4.37      6.57  123400.0    Yes
  JRNLTN43             JUNCTION             -4.16      6.36  111000.0    Yes
  JRNLTN48             JUNCTION             -4.01      6.21  164500.0    Yes
  JRNLTN57             JUNCTION             -3.73      5.93  101000.0    Yes
  JRNLTN61             JUNCTION             -3.63      5.83   56900.0    Yes
  JRNLTN62             JUNCTION             -3.60      5.80   39600.0    Yes
  JRNLTN66             JUNCTION             -3.48      5.68  139200.0    Yes
  JRNLTN70             JUNCTION             -3.35      5.55  149200.0    Yes
  JRNLTN71             JUNCTION             -3.30      5.50   89000.0    Yes
  JRNLTN74             JUNCTION             -3.19      5.39  120800.0    Yes
  JRNLTN78             JUNCTION             -3.07      5.27  168800.0    Yes
  JRNLTN83             JUNCTION             -2.93      5.13  112400.0    Yes
  JRNLTN86             JUNCTION             -2.82      5.02  169800.0    Yes
  JRPhVH26             JUNCTION             -0.78      2.78  298700.0    Yes
  JRVanT06             JUNCTION             -2.20      4.20  562500.0    Yes
  JRVanT18             JUNCTION             -2.00      4.00  739300.0    Yes
  RNLTN00              OUTFALL              -5.40      7.50       0.0
  
  
  ************
  Link Summary
  ************
  Name             From Node        To Node          Type            Length    %Slope Roughness
  ---------------------------------------------------------------------------------------------
  CBaXe73          JCBaXe73         JRNLTN70         CONDUIT          250.0    0.2000    0.0150
  CBhBn76          JCBhBn76         JRNLTN74         CONDUIT          456.0    0.1721    0.0150
  CBhBn83          JCBhBn83         JCBhBn76         CONDUIT          460.0    0.0776    0.0150
  CBhBn86          JCBhBn86         JCBhBn83         CONDUIT          357.0    0.0784    0.0150
  CBhBn88          JCBhBn88         JCBhBn86         CONDUIT          220.0    0.0818    0.0150
  CBhBn93          JCBhBn93         JCBhBn88         CONDUIT          438.0    0.0799    0.0150
  CBhBn96          JCBhBn96         JCBhBn93         CONDUIT          254.0    0.0787    0.0150
  CBunB65          JCBunB65         JRNLTN61         CONDUIT          381.0    0.3105    0.0150
  CBunB67          JCBunB67         JCBunB65         CONDUIT          200.0    0.3125    0.0150
  CBunB73          JCBunB73         JCBunB67         CONDUIT         1004.0    0.0561    0.0150
  CBunB78          JCBunB78         JCBunB73         CONDUIT          450.0    0.1313    0.0150
  CConHA1          JCConHA1         JCDaDD93         CONDUIT          364.0    0.1082    0.0150
  CConHA1a         JCConHA2         JCDaDD93         CONDUIT          364.0    0.1082    0.0150
  CConHA3          JMConHA3         JCConHA1         CONDUIT          470.0    0.0591    0.0150
  CConHA3a         JMConHA3         JCConHA2         CONDUIT          470.0    0.0545    0.0150
  CConHA6          JCConHA6         JMConHA3         CONDUIT          233.0    0.0592    0.0150
  CConHA6a         JCConHA6         JMConHA3         CONDUIT          280.0    0.0571    0.0150
  CConHB2          JCConHB2         JCConHA6         CONDUIT          675.0    0.0563    0.0150
  CDaDD90          JCDaDD90         JRNLTN86         CONDUIT          480.0    0.2779    0.0150
  CDaDD93          JCDaDD93         JCDaDD90         CONDUIT          370.0    0.2762    0.0150
  CLyTK90          JCLyTK90         JCBhBn83         CONDUIT          870.0    0.0598    0.0150
  CMieN28          JCMieN28         JRNLTN26         CONDUIT           80.0    0.2000    0.0150
  CMieN35          JCMieN35         JCMieN28         CONDUIT          810.0    0.1667    0.0150
  CNgTH92          JCNgTH92         JRNLTN86         CONDUIT          547.0    0.3993    0.0150
  CPhXL42          JCPhXL42         JCSuoD38         CONDUIT          467.0    0.1996    0.0150
  CPhXL46          JMPhDP53         JCPhXL42         CONDUIT          411.0    0.1757    0.0150
  CPhXL52          JCPhXL52         JCPhXL46         CONDUIT          599.0    0.1633    0.0150
  CSuoD38          JCSuoD38         JRNLTN30         CONDUIT          813.0    0.1554    0.0150
  CSuoD41          JCSuoD41         JCSuoD38         CONDUIT          546.0    0.3108    0.0150
  CSuoD46          JCSuoD46         JCSuoD41         CONDUIT          665.0    0.3293    0.0150
  CSuoD47          JCSuoD47         JCSuoD46         CONDUIT          220.0   -0.2909    0.0150
  CSuoD48          JCSuoD48         JCSuoD47         CONDUIT          160.0    0.1500    0.0150
  MBacD68          JMBacD68         JRNgTS62         CONDUIT          600.0    0.1000    0.0150
  MBaDa38          JMLeQD40         JMBaDa39         CONDUIT          400.0    0.1000    0.0150
  MBaDa39          JMBaDa39         JRCsCb38         CONDUIT          160.0    1.1707    0.0150
  MBaTH77a         JMBaTH77         JMCMTd71         CONDUIT          520.0    0.1000    0.0150
  MBaTH77b         JMBaTH77         JMCMTd71         CONDUIT          520.0    0.1000    0.0150
  MBaTH81          JCBunB78         JMBaTH77         CONDUIT          365.0    0.0778    0.0150
  MBaTH84          JMBaTH84         JCBunB78         CONDUIT          250.0    0.0824    0.0150
  MBaVT89          JMBaVT89         JMCMTt84         CONDUIT          530.0    0.1000    0.0150
  MBhBn87          JCBhBn86         JMCMTt80         CONDUIT          450.0    0.0889    0.0150
  MBHTQ69a         JMVThS66         JMLChT58         CONDUIT          159.0    0.1447    0.0150
  MBHTQ69b         JMVThS66         JMLChT58         CONDUIT          120.0    0.1667    0.0150
  MBHTQ70a         JMVThS66         JMTuXg70         CONDUIT          101.0    0.1980    0.0150
  MBHTQ70b         JMVThS66         JMTuXg70         CONDUIT          101.0    0.1683    0.0150
  MBHTQ71          JMDBPn40         JMTuXg70         CONDUIT           94.0    0.1596    0.0150
  MBHTQ72          JMNgTN72         JMDBPn40         CONDUIT           94.0    0.1596    0.0150
  MBHTQ73          JMNgDC72         JMNgTN72         CONDUIT          187.0    0.1422    0.0150
  MBuTX84          JMBuTX84         JRNLTN78         CONDUIT          583.0    0.2007    0.0150
  MBuTX85          JMBuTX85         JMBuTX84         CONDUIT          320.0    0.2013    0.0150
  MBuTX86          JMBuTX86         JMLeVS78         CONDUIT          220.0    0.1014    0.0150
  MCaTh78          JMDBPn50         JMBaTH77         CONDUIT          158.0    0.0975    0.0150
  MCaTh79          JMNgDC81         JMDBPn50         CONDUIT          400.0    0.1000    0.0150
  MCMTd71          JMCMTd71         JCBunB67         CONDUIT          336.0    0.1012    0.0150
  MCMTd72          JMCMTd72         JMCMTd71         CONDUIT          280.0    0.1000    0.0150
  MCMTd74          JMDBPn44         JMCMTd72         CONDUIT          120.0    0.1000    0.0150
  MCMTd76          JMCMTd76         JMDBPn44         CONDUIT          284.0    0.0986    0.0150
  MCMTd77          JMNgDC74         JMCMTd76         CONDUIT          127.0    0.1024    0.0150
  MCMTd78          JMCMTd78         JMNgDC74         CONDUIT          180.0    0.1000    0.0150
  MCMTd80          JMCMTd80         JMCMTd78         CONDUIT          140.0    0.1000    0.0150
  MCMTt72a         JMCMTt72         JMCMTt76         CONDUIT          216.0    0.1019    0.0150
  MCMTt72b         JMCMTt69         JMCMTt72         CONDUIT          610.0    0.1282    0.0150
  MCMTt76          JMCMTt76         JCBaXe73         CONDUIT          150.0    0.2333    0.0150
  MCMTt79          JMCMTt80         JMCMTt76         CONDUIT          495.0    0.0909    0.0150
  MCMTt80          JMCMTt80         JCBhBn76         CONDUIT          229.0    0.1048    0.0150
  MCMTt85a         JMCMTt84         JCBhBn76         CONDUIT          335.0    0.2197    0.0150
  MCMTt85b         JMCMTt84         JCBhBn76         CONDUIT          335.0    0.2197    0.0150
  MCMTt86          JMCMTt84         JMCMTt86         CONDUIT          155.0    0.1000    0.0150
  MCMTt86a         JMCMTt86         JRNLTN83         CONDUIT          307.0    0.1010    0.0150
  MCMTt90          JMCMTt90         JMCMTt86         CONDUIT          360.0    0.1008    0.0150
  MCMTt92          JMCMTt92         JMCMTt90         CONDUIT          510.0    0.1006    0.0150
  MCMTt92a         JMCMTt92         JCNgTH92         CONDUIT          180.0    0.1000    0.0150
  MCMTt94          JMHoHTB2         JMCMTt92         CONDUIT          840.0    0.0762    0.0150
  MCMTt95          JMCMTt94         JMHoHTB2         CONDUIT          820.0    0.0683    0.0150
  MCMTt96          JMCMTt96         JMCMTt94         CONDUIT          430.0    0.0581    0.0150
  MCMTt97          JMCMTt98         JMConHB9         CONDUIT          240.0    0.1483    0.0170
  MCMTt98          JMCMTt98         JMCMTt96         CONDUIT          650.0    0.0554    0.0150
  MCMTt99          JMConHB6         JMCMTt94         CONDUIT          350.0    0.0214    0.0150
  MConHA1          JCConHA2         JCConHA0         CONDUIT          364.0    0.0423    0.0150
  MConHB6          JMConHB6         JCConHB2         CONDUIT          400.0    0.0800    0.0150
  MConHB9          JMConHB9         JMConHB6         CONDUIT          325.0    0.1015    0.0150
  MDaVN83          JMDaVN83         JRNLTN78         CONDUIT          464.0    0.2948    0.0150
  MDBPb23          JMDBPb23         JRNLTN18         CONDUIT          470.0    0.1000    0.0150
  MDBPb28a         JMDBPb28         JMDBPb23         CONDUIT          970.0    0.1000    0.0150
  MDBPb28b         JMDBPb28         JMDBPb23         CONDUIT          970.0    0.1000    0.0150
  MDBPb29a         JMXVNT30         JMDBPb28         CONDUIT          970.0    0.1000    0.0150
  MDBPb29b         JMXVNT30         JMDBPb28         CONDUIT          970.0    0.1000    0.0150
  MDBPn24a         JMDBPn24         JMDTHn26         CONDUIT          302.0    0.8312    0.0170
  MDBPn24b         JMDBPn27         JMHaBT53         CONDUIT          160.0    0.6406    0.0170
  MDBPn24c         JMDBPn24         JMDBPn27         CONDUIT          150.0    0.6400    0.0170
  MDBPn38a         JMDBPn36         JMTruD67         CONDUIT          177.0    0.2825    0.0170
  MDBPn38b         JMDBPn36         JMTruD67         CONDUIT          177.0    0.2090    0.0170
  MDBPn40a         JMDBPn40         JMTruD67         CONDUIT          170.0    0.3412    0.0170
  MDBPn40b         JMDBPn40         JMTruD67         CONDUIT          170.0    0.3235    0.0170
  MDBPn42          JMDBPn42         JMDBPn40         CONDUIT          170.0    0.1765    0.0170
  MDBPn44a         JMDBPn42         JMDBPn44         CONDUIT          185.0    0.0811    0.0170
  MDBPn44b         JMDBPn42         JMDBPn44         CONDUIT          185.0    0.0811    0.0170
  MDBPn45          JMDBPn45         JMDBPn44         CONDUIT          110.0    0.0118    0.0150
  MDBPn50          JMDBPn50         JMDBPn45         CONDUIT          523.0    0.0499    0.0150
  MDLNK61          JMDLNK61         JCSuoD48         CONDUIT          600.0    0.1783    0.0150
  MDLNK69          JMDLNK69         JMDLNK61         CONDUIT          600.0    0.1700    0.0150
  MDLNK73          JMDLNK73         JMDLNK69         CONDUIT          600.0    0.1500    0.0150
  MDngDha          JMTruSA0         JCDngDh          CONDUIT          540.0    0.0463    0.0150
  MDTHb31          JMDTHb31         JRNLTN22         CONDUIT          937.0    0.1793    0.0100
  MDTHn24          JMDTHn24         JRNLTN22         CONDUIT          112.0    0.5000    0.0150
  MDTHn25          JMHaBT51         JMDTHn24         CONDUIT          600.0    0.3850    0.0150
  MDTHn26a         JMDTHn26         JMDTHn24         CONDUIT          164.0    0.7012    0.0170
  MDTHn26b         JMDTHn26         JRNLTN18         CONDUIT          419.0    0.8831    0.0150
  MDTHn29a         JMDTHn29         JMDTHn26         CONDUIT          312.0    0.2532    0.0170
  MDTHn29b         JMDTHn29         JRNLTN15         CONDUIT          561.0    0.7191    0.0170
  MDTHn30          JMNTMK25         JMDTHn29         CONDUIT          310.0    0.0968    0.0150
  MHaBT45          JMHaBT45         JRNLTN43         CONDUIT          170.0    0.3647    0.0150
  MHaBT48          JMHaBT48         JMHaBT45         CONDUIT          280.0    0.3607    0.0150
  MHaBT51          JMHaBT51         JMHaBT48         CONDUIT          350.0    0.3623    0.0150
  MHaBT53a         JMHaBT53         JMHaBT51         CONDUIT          168.0    0.3643    0.0150
  MHaBT53b         JMPhNT54         JMHaBT53         CONDUIT          150.0    0.1533    0.0150
  MHaBT56          JMHaBT56         JMHaBT53         CONDUIT          389.0    0.3625    0.0150
  MHaBT60          JMHaBT60         JMHaBT56         CONDUIT          300.0    0.3607    0.0150
  MHaBT61          JMHaBT61         JMHaBT60         CONDUIT          300.0    0.3623    0.0150
  MHDHa40          JMHDHa40         JMBaDa39         CONDUIT          150.0    0.6533    0.0150
  MHDHa41          JMHDHa41         JMHDHa40         CONDUIT          280.0    0.4821    0.0150
  MHDHa42          JMHDHa42         JMHDHa41         CONDUIT          200.0    0.1900    0.0150
  MHoaH74          JMHoaH74         JMCMTt69         CONDUIT          505.0    0.1006    0.0150
  MHoHT38          JMHoHT38         JCMieN35         CONDUIT          330.0    0.4758    0.0150
  MHoHT40          JMHoHT40         JMHoHT38         CONDUIT          100.0    0.2000    0.0150
  MHoHT40a         JMHoHT40         JMHoHT38         CONDUIT          100.0    0.2000    0.0150
  MHoHT42a         JMHoHT42         JMHoHT40         CONDUIT          710.0    0.4282    0.0150
  MHoHT42b         JMHoHT42         JMHoHT40         CONDUIT          710.0    0.4282    0.0150
  MHoHT50a         JMHoHT50         JMHoHT42         CONDUIT          500.0    0.2182    0.0150
  MHoHT50b         JMHoHT50         JMHoHT42         CONDUIT          500.0    0.2182    0.0150
  MHoHTB2          JCConHA6         JMHoHTB2         CONDUIT          590.0    0.2180    0.0150
  MHoVT56          JMHoVT56         JCPhXL52         CONDUIT          376.0    0.1330    0.0150
  MHoVT58          JMHoVT59         JMHoVT56         CONDUIT          240.0    0.1042    0.0150
  MHVBa48          JMPhDP48         JMNgVT50         CONDUIT          450.0    0.1273    0.0150
  MKyDg59          JMTruD62         JMTrQT59         CONDUIT          215.0    0.3312    0.0150
  MKyDg60          JMBHTQ67         JMTruD62         CONDUIT          178.0    0.2191    0.0150
  MLChT46          JMLChT46         JMHaBT45         CONDUIT          180.0    0.3000    0.0150
  MLChT48a         JMLChT46         JMNKKN56         CONDUIT          240.0    0.0504    0.0150
  MLChT48b         JMLChT46         JMNKKN56         CONDUIT          240.0    0.0154    0.0150
  MLChT54          JMLChT54         JMNKKN56         CONDUIT          480.0    0.0646    0.0150
  MLChT56          JMTruD63         JMLChT54         CONDUIT          252.0    0.2333    0.0150
  MLChT58          JMLChT58         JMTruD63         CONDUIT          161.0    0.1491    0.0150
  MLChT60a         JMLChT60         JMLChT58         CONDUIT          188.0    0.1500    0.0150
  MLChT60b         JMLChT60         JMLChT58         CONDUIT          188.0    0.1941    0.0150
  MLChT62a         JMLChT60         JMCMTd71         CONDUIT          155.0    0.0226    0.0150
  MLChT62b         JMLChT60         JMCMTd71         CONDUIT          155.0    0.3981    0.0150
  MLeQD36          JMLeQD38         JRNLTN20         CONDUIT          850.0    0.2000    0.0150
  MLeQD38          JMLeQD40         JMLeQD38         CONDUIT          200.0    0.2000    0.0150
  MLeQD40          JCMieN35         JMDTHb31         CONDUIT          100.0    0.3200    0.0150
  MLeQD40a         JMDTHb31         JMLeQD40         CONDUIT          300.0    0.3267    0.0150
  MLeQD42          JMHDHa42         JMLeQD40         CONDUIT          200.0    0.3000    0.0150
  MLeQD49          JMLeQD49         JMHDHa42         CONDUIT          700.0    0.3000    0.0150
  MLeQD52          JMLeQD52         JMLeQD49         CONDUIT          280.0    0.3000    0.0150
  MLeQD60          JMLeQD60         JMLeQD52         CONDUIT          550.0    0.3000    0.0150
  MLeVS61          JMLeVS61         JRNLTN57         CONDUIT          367.0    0.1499    0.0150
  MLeVS68          JMLeVS68         JMLeVS61         CONDUIT          850.0    0.1506    0.0150
  MLeVS70          JMDaVN83         JMLeVS68         CONDUIT          407.0    0.0990    0.0150
  MLeVS75          JMLeVS75         JMDaVN83         CONDUIT          600.0    0.1000    0.0150
  MLeVS78          JMLeVS78         JMLeVS75         CONDUIT          294.0    0.1010    0.0150
  MLeVS79          JMLeVS79         JMLeVS78         CONDUIT          220.0    0.1000    0.0150
  MLyTKA2          JMLyTKA4         JMCMTt92         CONDUIT          990.0    0.1000    0.0150
  MLyTKA4          JMLyTKA4         JCLyTK90         CONDUIT          616.0    0.1000    0.0150
  MMDCh24a         JMMDCh24         JMNgDC25         CONDUIT          152.0    0.4684    0.0170
  MMDCh24b         JMMDCh24         JMDBPn24         CONDUIT          159.0    0.1459    0.0170
  MNgDC25a         JMNgDC25         JMDTHn29         CONDUIT          457.0    0.2683    0.0170
  MNgDC25b         JMNgDC25         JMNgDC26         CONDUIT          130.0    0.0592    0.0170
  MNgDC26          JMNgDC26         JMHaBT56         CONDUIT          130.0    0.0562    0.0170
  MNgDC68          JMNgDC68         JMNKKN64         CONDUIT          260.0    0.0115    0.0150
  MNgDC77          JMNgDC77         JMNgDC74         CONDUIT          451.0    0.0747    0.0150
  MNgDC81          JMNgDC81         JMNgDC77         CONDUIT          289.0    0.0042    0.0150
  MNgKi58          JMNgKi60         JCPhXL46         CONDUIT          727.0    0.1499    0.0150
  MNgKi60          JCSuoD47         JMNgKi60         CONDUIT          250.0    0.1480    0.0150
  MNgTh67          JMNgTh69         JMBHTQ67         CONDUIT          119.0    0.3361    0.0150
  MNgTh68          JMNgTh68         JCBunB65         CONDUIT          147.0    0.5000    0.0150
  MNgTh69a         JMLChT60         JMNgTh69         CONDUIT          162.0    0.0617    0.0150
  MNgTh69b         JMLChT60         JMNgTh69         CONDUIT          162.0    0.0617    0.0150
  MNgTh70a         JMVThS68         JMLChT60         CONDUIT          114.0    0.3246    0.0150
  MNgTh70b         JMVThS68         JMLChT60         CONDUIT          114.0    0.3509    0.0150
  MNgTh72a         JMTuXg72         JMVThS68         CONDUIT          100.0    0.2000    0.0150
  MNgTh72b         JMTuXg72         JMVThS68         CONDUIT          100.0    0.2000    0.0150
  MNgTh74          JMNgTN74         JMDBPn42         CONDUIT          160.0    0.1688    0.0150
  MNgTN66a         JMNgTN66         JMNKKN63         CONDUIT          182.0    0.1813    0.0150
  MNgTN66b         JMNgTN66         JMNKKN63         CONDUIT          182.0    0.1099    0.0150
  MNgTN68          JMNgTN68         JMNgTN66         CONDUIT          205.0    0.2927    0.0150
  MNgTN70          JMTruD70         JMNgTN68         CONDUIT          175.0    0.0857    0.0150
  MNgTN72          JMNgTN72         JMTruD70         CONDUIT          167.0    0.1000    0.0150
  MNgTN74          JMNgTN72         JMNgTN74         CONDUIT          138.0    0.1667    0.0150
  MNgTN75          JMNgTN75         JMNgTN74         CONDUIT          120.0    0.1917    0.0150
  MNgVD42          JMNgVD42         JMHoHT40         CONDUIT          600.0    0.1550    0.0150
  MNgVD45a         JMNgVD42         JCSuoD41         CONDUIT          280.0    0.4818    0.0150
  MNgVD45b         JMNgVD45         JMNgVD42         CONDUIT          170.0    0.4771    0.0150
  MNgVD48          JMHoHT42         JMNgVD45         CONDUIT          370.0    0.4951    0.0150
  MNgVD52          JMLeQD52         JMHoHT42         CONDUIT          400.0    0.2418    0.0150
  MNgVT50          JMNgVT50         JRNLTN48         CONDUIT          228.0    0.1500    0.0150
  MNgVT57          JMNgVT57         JMNgVT50         CONDUIT          736.0    0.2457    0.0150
  MNgVT60a         JCDngDh          JMNgVT57         CONDUIT          827.0    0.2116    0.0150
  MNgVT60b         JMHoVT59         JMNgVT57         CONDUIT          827.0    0.2479    0.0150
  MNgVT61          JMTruSA2         JCDngDh          CONDUIT          540.0    0.3333    0.0150
  MNKKN54          JMNKKN54         JRNLTN48         CONDUIT          359.0    0.5989    0.0150
  MNKKN56          JMNKKN56         JMNKKN54         CONDUIT          120.0    0.3083    0.0150
  MNKKN60          JMNKKN60         JMNKKN56         CONDUIT          608.0    0.3076    0.0150
  MNKKN61          JMNKKN61         JMNKKN60         CONDUIT          120.0    0.2183    0.0150
  MNKKN62          JMNKKN62         JMNKKN61         CONDUIT          130.0    0.2231    0.0150
  MNKKN63          JMNKKN63         JMNKKN62         CONDUIT          145.0    0.2828    0.0150
  MNKKN64          JMNKKN64         JMNKKN63         CONDUIT          165.0    0.2788    0.0150
  MNKKN65          JMNKKN66         JMNKKN64         CONDUIT          150.0    0.2000    0.0150
  MNKKN67          JMNKKN67         JMNKKN66         CONDUIT          150.0    0.2000    0.0150
  MNThH45          JMHoHT50         JMNgVD45         CONDUIT          748.0    0.2408    0.0150
  MNThH50          JMLeQD60         JMHoHT50         CONDUIT         1024.0    0.1698    0.0150
  MNTHi76          JMDBPn45         JMCMTd71         CONDUIT          240.0    0.0429    0.0150
  MNTHi77          JMNgDC77         JMDBPn45         CONDUIT          375.0    0.0853    0.0150
  MNTHi78          JMVoVT78         JMNgDC77         CONDUIT          162.0    0.0370    0.0150
  MNTMK22          JMNTMK25         JRNLTN11         CONDUIT          750.0    0.3480    0.0150
  MNTMK25          JMHaBT61         JMNTMK25         CONDUIT          550.0    0.3473    0.0150
  MPast54a         JMPast54         JMPhNT52         CONDUIT          177.0    0.0972    0.0150
  MPast54b         JMNKKN60         JMPast54         CONDUIT          143.0    0.1035    0.0150
  MPast56a         JMPast56         JMPast54         CONDUIT          257.0    0.2280    0.0170
  MPast56b         JMPast56         JMPhNT54         CONDUIT          172.0    0.0058    0.0170
  MPast56c         JMPast56         JMNKKN62         CONDUIT          148.0    0.0642    0.0170
  MPast59a         JMPast59         JMPast56         CONDUIT          311.0    0.3859    0.0170
  MPast59b         JMPast59         JMNKKN64         CONDUIT          178.0    0.4994    0.0170
  MPast60          JMPast60         JMPast59         CONDUIT          150.0    0.5533    0.0170
  MPast62          JMPast62         JMPast60         CONDUIT          150.0    0.5533    0.0170
  MPhDP48          JMPhDP48         JRNLTN43         CONDUIT          551.0    0.3000    0.0150
  MPhDP53          JCPhXL46         JMPhDP48         CONDUIT          420.0    0.3012    0.0150
  MPhNT52          JMPhNT52         JMHaBT51         CONDUIT          129.0    0.1938    0.0170
  MPhNT54          JMPhNT54         JMPhNT52         CONDUIT          247.0    0.4826    0.0170
  MPhNT57a         JMPhNT57         JMPast59         CONDUIT          200.0    0.4950    0.0170
  MPhNT57b         JMPhNT57         JMHaBT56         CONDUIT          112.0    0.2589    0.0170
  MPhNT57c         JMPhNT57         JMPhNT54         CONDUIT          320.0    0.7000    0.0170
  MPKhK26a         JMPKhK26         JMNgDC26         CONDUIT          152.0    0.2237    0.0170
  MPKhK26b         JMPKhK26         JMDBPn27         CONDUIT          159.0    0.0616    0.0170
  MPVHb83          JMPVHb84         JRNLTN83         CONDUIT          200.0    0.2020    0.0150
  MPVHb84          JMBuTX84         JMPVHb84         CONDUIT          200.0    0.1980    0.0150
  MPVHb85          JMPVHb86         JMBuTX84         CONDUIT          130.0    0.2031    0.0150
  MPVHb86          JMPVHb88         JMLeVS75         CONDUIT          330.0    0.1506    0.0150
  MTKDa32          JMTKDa32         JRNLTN30         CONDUIT          138.0    0.4478    0.0150
  MToHT96          JMToHT96         JMCMTt72         CONDUIT         1150.0    0.0917    0.0150
  MToHT97b         JCBhBn96         JMToHT96         CONDUIT          144.0    0.2125    0.0150
  MToHT98          JMToHT98         JMToHT96         CONDUIT          400.0    0.0740    0.0150
  MToHT99          JMToHT99         JMToHT98         CONDUIT          410.0    0.0683    0.0150
  MTQDb66          JMTQDb67         JRNLTN62         CONDUIT          310.0    0.2839    0.0150
  MTQDb67          JMLeVS61         JMTQDb67         CONDUIT          100.0    0.2840    0.0150
  MTQDn63          JMTQDn63         JRNLTN62         CONDUIT          100.0    0.7000    0.0150
  MTrKC34          JMTrKC34         JRNLTN30         CONDUIT          616.0    0.1500    0.0150
  MTrND36          JMTrND36         JRNLTN32         CONDUIT          294.0    0.3000    0.0150
  MTrQT59          JMTrQT59         JRNLTN57         CONDUIT          166.0    0.2000    0.0150
  MTrQT60          JMLChT54         JMTrQT59         CONDUIT          180.0    0.2000    0.0150
  MTrQT62          JMVThS64         JMLChT54         CONDUIT          340.0    0.1500    0.0150
  MTrQT63          JMTuXg66         JMVThS64         CONDUIT          150.0    0.1000    0.0150
  MTrQT64          JMDBPn36         JMTuXg66         CONDUIT          140.0    0.1000    0.0150
  MTrQT65          JMNgTN68         JMDBPn36         CONDUIT          170.0    0.1000    0.0150
  MTrQT66          JMNgDC68         JMNgTN68         CONDUIT          180.0    0.1000    0.0150
  MTrQT67          JMVoVT70         JMNgDC68         CONDUIT          180.0    0.1000    0.0150
  MTruD62          JMTruD62         JRNLTN61         CONDUIT          220.0    0.4136    0.0150
  MTruD63          JMTruD63         JMTruD62         CONDUIT          140.0    0.4121    0.0150
  MTruD64          JMTruD64         JMTruD63         CONDUIT          240.0    0.4138    0.0150
  MTruD65          JMTruD65         JMTruD64         CONDUIT          117.0    0.2051    0.0170
  MTruD67          JMTruD67         JMTruD65         CONDUIT          117.0    0.2051    0.0170
  MTruD70          JMTruD70         JMTruD67         CONDUIT          125.0    0.2848    0.0170
  MTruD71          JMTruD71         JMTruD70         CONDUIT          125.0    0.2192    0.0170
  MTruD72          JMTruD72         JMTruD71         CONDUIT           60.0    0.6617    0.0150
  MTruSA2          JMTruSA2         JMTruSA0         CONDUIT          540.0    0.3191    0.0150
  MTruSA4          JMTruSA4         JMTruSA2         CONDUIT          430.0    0.4651    0.0150
  MTruSA4a         JMTruSA4         JMTruSA2         CONDUIT          430.0    0.1860    0.0150
  MTruSA6          JMTruSA4         JMTruSA6         CONDUIT          550.0    0.1091    0.0150
  MTruSAa          JCConHA0         JMTruSA0         CONDUIT          436.0    0.0482    0.0150
  MTSN2A6          JMTSN2A6         JCConHA6         CONDUIT          350.0    0.4840    0.0150
  MTSN2A6a         JMTSN2A6         JCConHA6         CONDUIT          350.0    0.4840    0.0150
  MTuXg64          JMNKKN61         JMTuXg64         CONDUIT          158.0    0.4304    0.0150
  MTuXg66          JMTuXg66         JMTuXg64         CONDUIT          175.0    0.4000    0.0150
  MTuXg68          JMTruD65         JMTuXg66         CONDUIT          195.0    0.2564    0.0150
  MTuXg70          JMTruD65         JMTuXg70         CONDUIT          161.0    0.3292    0.0150
  MTuXg72          JMTuXg70         JMTuXg72         CONDUIT          180.0    0.1111    0.0150
  MTuXg74          JMCMTd72         JMTuXg72         CONDUIT          168.0    0.1190    0.0150
  MVaKi26          JMVaKi28         JCMieN28         CONDUIT          100.0    0.1000    0.0150
  MVaKi28          JMHoHT38         JMVaKi28         CONDUIT          740.0    0.1703    0.0150
  MVoVT64          JMPast60         JMNKKN66         CONDUIT          145.0    0.6179    0.0170
  MVoVT72          JMVoVT72         JMVoVT70         CONDUIT          180.0    0.3778    0.0150
  MVoVT76a         JMVoVT74         JMCMTd78         CONDUIT          207.0    0.6474    0.0150
  MVoVT76b         JMVoVT74         JMCMTd78         CONDUIT          207.0    0.4343    0.0150
  MVoVT78          JMVoVT78         JMCMTd78         CONDUIT          400.0    0.0900    0.0150
  MVThS62a         JMVThS62         JMNKKN60         CONDUIT          160.0    0.2125    0.0150
  MVThS62b         JMVThS62         JMNKKN60         CONDUIT          160.0    0.0794    0.0150
  MVThS63a         JMVThS64         JMVThS62         CONDUIT          185.0    0.1070    0.0150
  MVThS63b         JMVThS64         JMVThS62         CONDUIT          185.0    0.1119    0.0150
[...]
  MDBPb23                   1504.810      3305.048         2.047       255.934
  MDBPb28a                   353.405       776.102         0.482        60.191
  MDBPb28b                   353.405       776.102         0.482        60.191
  MDBPb29a                   248.395       545.710         0.337        42.099
  MDBPb29b                   248.395       545.710         0.337        42.099
  MDBPn24a                   169.183       372.181         0.226        28.216
  MDBPn24b                   301.165       662.527         0.402        50.227
  MDBPn24c                   102.718       225.966         0.137        17.132
  MDBPn38a                    19.401        42.653         0.026         3.261
  MDBPn38b                    18.091        39.774         0.024         3.040
  MDBPn40a                    50.972       112.067         0.068         8.561
  MDBPn40b                    41.155        90.488         0.055         6.907
  MDBPn42                     50.147       110.223         0.068         8.451
  MDBPn44a                    78.887       173.410         0.106        13.278
  MDBPn44b                    78.887       173.410         0.106        13.278
  MDBPn45                    615.016      1351.667         0.830       103.763
  MDBPn50                    399.731       878.235         0.542        67.702
  MDLNK61                   3063.623      6731.262         4.149       518.628
  MDLNK69                   1883.868      4139.318         2.550       318.760
  MDLNK73                    799.826      1758.402         1.075       134.418
  MDngDha                   1897.921      4170.360         2.568       321.018
  MDTHb31                    522.917      1149.696         0.703        87.816
  MDTHn24                   2493.625      5484.178         3.338       417.251
  MDTHn25                   1461.418      3213.722         1.959       244.848
  MDTHn26a                   667.878      1469.213         0.891       111.420
  MDTHn26b                   254.506       559.831         0.340        42.493
  MDTHn29a                   454.961      1000.807         0.607        75.924
  MDTHn29b                   380.225       836.323         0.508        63.528
  MDTHn30                    105.390       231.817         0.141        17.603
  MHaBT45                   1541.389      3389.317         2.068       258.523
  MHaBT48                   1143.197      2513.947         1.532       191.538
  MHaBT51                    788.069      1733.015         1.056       132.017
  MHaBT53a                  1152.254      2534.563         1.539       192.403
  MHaBT53b                    98.526       216.710         0.132        16.464
  MHaBT56                    635.014      1396.779         0.849       106.065
  MHaBT60                    438.000       963.463         0.585        73.125
  MHaBT61                    285.288       627.548         0.381        47.627
  MHDHa40                   1067.075      2345.645         1.437       179.608
  MHDHa41                    302.954       666.163         0.406        50.800
  MHDHa42                    113.638       249.854         0.153        19.076
  MHoaH74                   1145.128      2512.680         1.576       197.001
  MHoHT38                   1490.397      3276.287         2.006       250.774
  MHoHT40                   1243.848      2734.189         1.675       209.401
  MHoHT40a                  1243.848      2734.189         1.675       209.401
  MHoHT42a                   614.268      1350.041         0.829       103.620
  MHoHT42b                   614.268      1350.041         0.829       103.620
  MHoHT50a                   457.755      1005.736         0.620        77.512
  MHoHT50b                   457.755      1005.736         0.620        77.512
  MHoHTB2                    232.083       509.997         0.314        39.220
  MHoVT56                    699.348      1538.261         0.935       116.836
  MHoVT58                    576.477      1267.987         0.771        96.318
  MHVBa48                      8.813        19.385         0.012         1.473
  MKyDg59                    245.252       538.551         0.335        41.813
  MKyDg60                    739.246      1622.687         1.013       126.603
  MLChT46                    199.999       439.833         0.268        33.483
  MLChT48a                    41.980        92.306         0.056         7.043
  MLChT48b                    24.921        54.797         0.033         4.181
  MLChT54                    293.779       645.442         0.398        49.781
  MLChT56                    436.358       958.372         0.594        74.231
  MLChT58                    593.033      1302.656         0.806       100.706
  MLChT60a                   294.239       646.054         0.402        50.218
  MLChT60b                    27.546        60.483         0.038         4.699
  MLChT62a                    67.436       148.123         0.092        11.458
  MLChT62b                    61.859       135.889         0.084        10.494
  MLeQD36                   2923.474      6422.577         3.965       495.678
  MLeQD38                   3682.165      8098.097         4.929       616.140
  MLeQD40                    528.031      1160.588         0.712        88.998
  MLeQD40a                   342.378       752.553         0.461        57.687
  MLeQD42                   3244.686      7136.829         4.337       542.132
  MLeQD49                   2698.785      5936.183         3.607       450.840
  MLeQD52                   1476.121      3246.763         1.973       246.662
  MLeQD60                    739.030      1625.407         0.989       123.592
  MLeVS61                   3518.517      7724.417         4.814       601.789
  MLeVS68                   2875.828      6320.346         3.883       485.418
  MLeVS70                   1922.292      4226.268         2.584       322.951
  MLeVS75                   1192.897      2622.617         1.603       200.430
  MLeVS78                    494.941      1088.582         0.662        82.753
  MLeVS79                    243.087       534.723         0.325        40.576
  MLyTKA2                    893.679      1965.058         1.199       149.900
  MLyTKA4                    323.992       712.418         0.435        54.333
  MMDCh24a                    73.345       161.348         0.098        12.234
  MMDCh24b                    50.672       111.472         0.068         8.452
  MNgDC25a                   282.428       621.281         0.377        47.126
  MNgDC25b                    39.023        85.834         0.052         6.520
  MNgDC26                    141.935       312.214         0.190        23.695
  MNgDC68                     70.483       155.036         0.094        11.772
  MNgDC77                    220.053       483.605         0.297        37.144
  MNgDC81                     98.849       217.231         0.134        16.693
  MNgKi58                   7306.846     1.606e+04         9.855      1231.905
  MNgKi60                   6206.453     1.364e+04         8.378      1047.299
  MNgTh67                    266.664       585.320         0.365        45.687
  MNgTh68                    445.150       977.240         0.609        76.130
  MNgTh69a                   254.269       558.660         0.344        43.057
  MNgTh69b                   254.269       558.660         0.344        43.057
  MNgTh70a                   151.608       333.382         0.203        25.411
  MNgTh70b                   146.261       321.633         0.196        24.507
  MNgTh72a                    68.373       150.323         0.092        11.485
  MNgTh72b                    68.373       150.323         0.092        11.485
  MNgTh74                    119.752       263.118         0.162        20.269
  MNgTN66a                    81.532       179.273         0.109        13.677
  MNgTN66b                    50.931       111.988         0.068         8.544
  MNgTN68                     96.444       212.082         0.129        16.161
  MNgTN70                    110.440       242.799         0.148        18.562
  MNgTN72                    181.184       398.252         0.244        30.522
  MNgTN74                     73.568       161.607         0.100        12.484
  MNgTN75                     96.399       211.675         0.132        16.438
  MNgVD42                    471.454      1036.388         0.635        79.320
  MNgVD45a                  1293.871      2844.891         1.737       217.136
  MNgVD45b                  1277.604      2808.582         1.719       214.904
  MNgVD48                    455.816      1002.117         0.613        76.592
  MNgVD52                     82.900       182.310         0.111        13.881
  MNgVT50                  1.126e+04     2.475e+04        15.286      1910.693
  MNgVT57                  1.003e+04     2.203e+04        13.587      1698.341
  MNgVT60a                  7746.180     1.702e+04        10.504      1312.973
  MNgVT60b                  1175.579      2585.410         1.574       196.718
  MNgVT61                   5828.706     1.280e+04         7.911       988.833
  MNKKN54                   2084.682      4582.690         2.807       350.842
  MNKKN56                   1725.041      3792.556         2.319       289.868
  MNKKN60                   1204.469      2648.639         1.615       201.836
  MNKKN61                   1050.210      2309.949         1.404       175.503
  MNKKN62                    945.420      2079.492         1.264       157.964
  MNKKN63                    770.842      1695.548         1.030       128.753
  MNKKN64                    623.875      1372.374         0.833       104.118
  MNKKN65                    392.348       863.101         0.524        65.450
  MNKKN67                    155.793       342.719         0.208        25.987
  MNThH45                    329.015       722.990         0.445        55.611
  MNThH50                     44.390        97.544         0.060         7.503
  MNTHi76                    127.906       281.144         0.172        21.546
  MNTHi77                    200.336       440.339         0.270        33.758
  MNTHi78                    180.022       395.838         0.242        30.197
  MNTMK22                    343.744       756.077         0.459        57.437
  MNTMK25                    153.761       338.190         0.206        25.703
  MPast54a                   417.334       917.521         0.561        70.116
  MPast54b                   451.284       992.294         0.606        75.700
  MPast56a                   190.411       418.789         0.255        31.840
  MPast56b                    95.991       211.118         0.128        16.055
  MPast56c                   102.285       224.959         0.137        17.110
  MPast59a                   181.724       399.743         0.243        30.333
  MPast59b                   170.874       375.882         0.228        28.515
  MPast60                    136.340       299.932         0.182        22.739
  MPast62                    137.373       302.210         0.183        22.904
  MPhDP48                  1.026e+04     2.256e+04        13.831      1728.835
  MPhDP53                   9485.569     2.085e+04        12.775      1596.930
  MPhNT52                    882.758      1940.894         1.186       148.200
  MPhNT54                    231.759       509.762         0.310        38.724
  MPhNT57a                    96.928       213.222         0.129        16.172
  MPhNT57b                    84.449       185.768         0.113        14.092
  MPhNT57c                   126.615       278.517         0.169        21.135
  MPKhK26a                    30.748        67.632         0.041         5.137
  MPKhK26b                    69.615       153.144         0.093        11.610
  MPVHb83                    306.170       673.338         0.410        51.245
  MPVHb84                    114.476       251.737         0.153        19.181
  MPVHb85                    161.315       354.768         0.216        27.000
  MPVHb86                    461.761      1015.004         0.622        77.760
  MTKDa32                    219.161       480.864         0.302        37.726
  MToHT96                   2385.044      5236.012         3.263       407.855
  MToHT97b                   916.317      2012.449         1.247       155.906
  MToHT98                   1211.581      2659.834         1.658       207.194
  MToHT99                    639.286      1402.045         0.885       110.649
  MTQDb66                    452.097       992.475         0.619        77.359
  MTQDb67                    345.004       757.885         0.468        58.556
  MTQDn63                    188.234       414.075         0.251        31.409
  MTrKC34                    421.789       925.689         0.579        72.387
  MTrND36                    225.862       495.654         0.310        38.799
  MTrQT59                   2443.065      5364.396         3.335       416.839
  MTrQT60                   2155.497      4737.383         2.909       363.664
  MTrQT62                   1448.723      3184.477         1.952       243.985
  MTrQT63                   1197.243      2631.962         1.611       201.365
  MTrQT64                   1041.256      2289.093         1.401       175.082
  MTrQT65                    902.622      1984.346         1.214       151.748
  MTrQT66                    657.557      1445.658         0.884       110.483
  MTrQT67                    459.968      1011.251         0.618        77.288
  MTruD62                   1607.434      3530.363         2.188       273.489
  MTruD63                   1139.382      2504.611         1.534       191.774
  MTruD64                    827.716      1820.034         1.111       138.814
  MTruD65                    572.843      1259.643         0.768        96.034
  MTruD67                    482.521      1061.010         0.647        80.912
  MTruD70                    341.638       751.184         0.459        57.324
  MTruD71                    129.973       285.845         0.174        21.748
  MTruD72                     66.059       145.322         0.088        11.016
  MTruSA2                    403.494       886.425         0.547        68.414
  MTruSA4                   3168.070      6964.389         4.263       532.935
  MTruSA4a                  1763.007      3875.687         2.372       296.520
  MTruSA6                   3110.726      6841.510         4.163       520.377
  MTruSAa                   1599.245      3513.228         2.170       271.306
  MTSN2A6                   2723.813      5990.349         3.647       455.832
  MTSN2A6a                  1549.741      3408.398         2.074       259.234
  MTuXg64                     43.564        95.805         0.058         7.293
  MTuXg66                     76.475       168.184         0.102        12.802
  MTuXg68                     20.408        44.870         0.027         3.427
  MTuXg70                     27.676        60.837         0.037         4.660
  MTuXg72                     37.777        83.062         0.051         6.340
  MTuXg74                     65.768       144.528         0.089        11.110
  MVaKi26                   1972.367      4330.575         2.694       336.708
  MVaKi28                   1492.758      3280.896         2.014       251.711
  MVoVT64                    114.407       251.683         0.153        19.079
  MVoVT72                    190.546       418.646         0.258        32.268
  MVoVT76a                    72.771       160.035         0.097        12.184
  MVoVT76b                    99.291       218.376         0.133        16.608
  MVoVT78                    167.299       367.850         0.225        28.074
  MVThS62a                    27.068        59.534         0.036         4.525
  MVThS62b                    29.120        64.047         0.039         4.869
  MVThS63a                    63.697       140.111         0.085        10.637
  MVThS63b                    78.416       172.489         0.105        13.094
  MVThS64a                    30.193        66.387         0.041         5.066
  MVThS64b                    29.243        64.300         0.039         4.905
  MVThS66a                    41.584        91.414         0.056         6.996
  MVThS66b                    39.499        86.835         0.053         6.642
  MVThS68a                    22.860        50.270         0.031         3.829
  MVThS68b                    25.791        56.709         0.035         4.326
  MVThS70a                    38.689        85.106         0.052         6.456
  MVThS70b                    38.714        85.162         0.052         6.461
  MVuTg38                   1251.347      2749.314         1.696       211.970
  MXVNT30                    777.982      1709.467         1.053       131.591
  RCsCb25                   6053.659     1.326e+04         8.490      1061.309
  RCsCb26                   6247.833     1.369e+04         8.717      1089.666
  RCsCb31                   5640.515     1.236e+04         7.884       985.468
  RCsCb36                   4613.473     1.011e+04         6.438       804.691
  RCsCb38                   3994.974      8763.058         5.524       690.467
  RCsCb46                    898.476      1966.754         1.274       159.267
  RNgTS53                   5977.630     1.314e+04         8.041      1005.179
  RNgTS60                   1002.385      2203.543         1.349       168.642
  RNgTS62                   4304.727      9462.511         5.798       724.715
  RNLTN02                  8.625e+04     1.892e+05       118.878     1.486e+04
  RNLTN06                  8.207e+04     1.801e+05       113.152     1.414e+04
  RNLTN11                  8.527e+04     1.871e+05       117.708     1.471e+04
  RNLTN12                  8.747e+04     1.919e+05       120.716     1.509e+04
  RNLTN15                  8.730e+04     1.915e+05       120.581     1.507e+04
  RNLTN18                  8.862e+04     1.944e+05       122.499     1.531e+04
  RNLTN20                  8.894e+04     1.951e+05       123.067     1.538e+04
  RNLTN21                  8.119e+04     1.781e+05       112.346     1.404e+04
  RNLTN22                  8.167e+04     1.791e+05       113.048     1.413e+04
  RNLTN26                  7.965e+04     1.747e+05       110.467     1.381e+04
  RNLTN30                  7.787e+04     1.707e+05       108.170     1.352e+04
  RNLTN32                  7.052e+04     1.546e+05        98.221     1.228e+04
  RNLTN36                  7.119e+04     1.561e+05        99.200     1.240e+04
  RNLTN43                  7.089e+04     1.554e+05        98.843     1.236e+04
  RNLTN48                  6.145e+04     1.347e+05        85.961     1.075e+04
  RNLTN57                  4.670e+04     1.023e+05        65.693      8211.680
  RNLTN61                  4.212e+04     9.229e+04        59.035      7379.413
  RNLTN62                  3.513e+04     7.696e+04        49.365      6170.630
  RNLTN66                  3.434e+04     7.523e+04        48.168      6021.034
  RNLTN70                  3.269e+04     7.163e+04        45.711      5713.876
  RNLTN71                  2.709e+04     5.938e+04        37.747      4718.434
  RNLTN74                  2.627e+04     5.760e+04        36.482      4560.207
  RNLTN78                  2.096e+04     4.596e+04        29.037      3629.595
  RNLTN83                  1.851e+04     4.061e+04        25.501      3187.611
  RNLTN86                  1.482e+04     3.253e+04        20.229      2528.594
  RPhVH26                    978.272      2149.432         1.325       165.605
  RVanT06                   4367.288      9575.015         6.072       758.961
  RVanT18                   1939.742      4247.876         2.735       341.915
  

  Analysis begun on:  Fri Nov 29 15:01:28 2019
  Analysis ended on:  Fri Nov 29 15:01:31 2019
  Total elapsed time: 00:00:03