
  EPA STORM WATER MANAGEMENT MODEL - VERSION 5.1 (Build 5.1.013)
  --------------------------------------------------------------

  WARNING 04: minimum elevation drop used for Conduit 87783
  WARNING 03: negative offset ignored for Link 88794
  WARNING 04: minimum elevation drop used for Conduit 88794
  WARNING 04: minimum elevation drop used for Conduit 91463
  WARNING 04: minimum elevation drop used for Conduit 92330-2
  WARNING 03: negative offset ignored for Link 92346
  WARNING 04: minimum elevation drop used for Conduit 92522
  WARNING 03: negative offset ignored for Link 95054
  WARNING 04: minimum elevation drop used for Conduit 9517-3
  WARNING 04: minimum elevation drop used for Conduit 95172-2
  WARNING 03: negative offset ignored for Link 95247
  WARNING 03: negative offset ignored for Link 95249
  WARNING 03: negative offset ignored for Link 95307
  WARNING 04: minimum elevation drop used for Conduit 96200
  WARNING 04: minimum elevation drop used for Conduit 96968
  WARNING 03: negative offset ignored for Link 97165
  WARNING 04: minimum elevation drop used for Conduit 97334
  WARNING 04: minimum elevation drop used for Conduit 97430-2
  WARNING 04: minimum elevation drop used for Conduit 97430-3
  WARNING 03: negative offset ignored for Link 99211
  WARNING 04: minimum elevation drop used for Conduit 99498-2
  WARNING 03: negative offset ignored for Link OUTFALL-PIPE-2
  WARNING 03: negative offset ignored for Link OUTFALL-PIPE-2
  WARNING 04: minimum elevation drop used for Conduit RM-100-01
  WARNING 10: crest elevation raised to downstream invert for regulator Link ORI-11
  WARNING 02: maximum depth increased for Node 23240
  WARNING 02: maximum depth increased for Node 26196
  WARNING 02: maximum depth increased for Node RM-JCT-22
  WARNING 02: maximum depth increased for Node RM-JCT-22_A
  WARNING 02: maximum depth increased for Node RM-JCT-370
  WARNING 02: maximum depth increased for Node RM-JCT-82
  
  *********************************************************
  NOTE: The summary statistics displayed in this report are
  based on results found at every computational time step,  
  not just on results from each reporting time step.
  *********************************************************
  
  ****************
  Analysis Options
  ****************
  Flow Units ............... LPS
  Process Models:
    Rainfall/Runoff ........ NO
    RDII ................... NO
    Snowmelt ............... NO
    Groundwater ............ NO
    Flow Routing ........... YES
    Ponding Allowed ........ NO
    Water Quality .......... NO
  Flow Routing Method ...... DYNWAVE
  Surcharge Method ......... EXTRAN
  Starting Date ............ 06/09/2010 00:00:00
  Ending Date .............. 06/10/2010 23:00:00
  Antecedent Dry Days ...... 5.0
  Report Time Step ......... 00:00:01
  Routing Time Step ........ 1.00 sec
  Variable Time Step ....... YES
  Maximum Trials ........... 8
  Number of Threads ........ 8
  Head Tolerance ........... 0.000100 m
  
  
  **************************        Volume        Volume
  Flow Routing Continuity        hectare-m      10^6 ltr
  **************************     ---------     ---------
  Dry Weather Inflow .......         0.000         0.000
  Wet Weather Inflow .......         0.000         0.000
  Groundwater Inflow .......         0.000         0.000
  RDII Inflow ..............         0.000         0.000
  External Inflow ..........         0.000         0.000
  External Outflow .........         0.000         0.000
  Flooding Loss ............         0.000         0.000
  Evaporation Loss .........         0.000         0.000
  Exfiltration Loss ........         0.000         0.000
  Initial Stored Volume ....         0.016         0.164
  Final Stored Volume ......         0.016         0.164
  Continuity Error (%) .....         0.000
  
  
  ***************************
  Time-Step Critical Elements
  ***************************
  None
  
  
  ********************************
  Highest Flow Instability Indexes
  ********************************
  All links are stable.
  
  
  ******************
  Node Depth Summary
  ******************
  
  ---------------------------------------------------------------------------------
                                 Average  Maximum  Maximum  Time of Max    Reported
                                   Depth    Depth      HGL   Occurrence   Max Depth
  Node                 Type       Meters   Meters   Meters  days hr:min      Meters
  ---------------------------------------------------------------------------------
  000.00               JUNCTION  -nan(ind)     0.00     8.29     0  00:00        0.00
  000.00-2             JUNCTION  -nan(ind)     0.00     8.29     0  00:00        0.00
  179.73               JUNCTION  -nan(ind)     0.00    14.50     0  00:00        0.00
  179.73-2             JUNCTION  -nan(ind)     0.00    14.50     0  00:00        0.00
  18034                JUNCTION  -nan(ind)     0.00    26.31     0  00:00        0.00
  18037                JUNCTION  -nan(ind)     0.00     2.81     0  00:00        0.00
  18039                JUNCTION  -nan(ind)     0.00    29.59     0  00:00        0.00
  18137                JUNCTION  -nan(ind)     0.00     0.16     0  00:00        0.00
  18403                JUNCTION  -nan(ind)     0.00     0.44     0  00:00        0.00
  18404                JUNCTION  -nan(ind)     0.00     0.57     0  00:00        0.00
  18405                JUNCTION  -nan(ind)     0.00     0.60     0  00:00        0.00
  18406                JUNCTION  -nan(ind)     0.00     0.52     0  00:00        0.00
  19955                JUNCTION  -nan(ind)     0.00     2.02     0  00:00        0.00
  19956                JUNCTION  -nan(ind)     0.00     2.02     0  00:00        0.00
  19957                JUNCTION  -nan(ind)     0.00     2.12     0  00:00        0.00
  19958                JUNCTION  -nan(ind)     0.00     2.50     0  00:00        0.00
  19966                JUNCTION  -nan(ind)     0.00     2.89     0  00:00        0.00
  19995                JUNCTION  -nan(ind)     0.00     2.40     0  00:00        0.00
  19996                JUNCTION  -nan(ind)     0.00     2.30     0  00:00        0.00
  20002                JUNCTION  -nan(ind)     0.00     1.95     0  00:00        0.00
  20003                JUNCTION  -nan(ind)     0.00     2.01     0  00:00        0.00
  20011                JUNCTION  -nan(ind)     0.00     1.90     0  00:00        0.00
  20066                JUNCTION  -nan(ind)     0.00     2.75     0  00:00        0.00
  20069                JUNCTION  -nan(ind)     0.00     2.69     0  00:00        0.00
  20071                JUNCTION  -nan(ind)     0.00     2.88     0  00:00        0.00
  20072                JUNCTION  -nan(ind)     0.00     2.92     0  00:00        0.00
  20462                JUNCTION  -nan(ind)     0.00     6.68     0  00:00        0.00
  20560                JUNCTION  -nan(ind)     0.00     5.66     0  00:00        0.00
  20561                JUNCTION  -nan(ind)     0.00     5.57     0  00:00        0.00
  20562                JUNCTION  -nan(ind)     0.00     5.70     0  00:00        0.00
  22772                JUNCTION  -nan(ind)     0.00     8.57     0  00:00        0.00
  22776                JUNCTION  -nan(ind)     0.00     7.68     0  00:00        0.00
  22777                JUNCTION  -nan(ind)     0.00     7.21     0  00:00        0.00
  23178                JUNCTION  -nan(ind)     0.00     1.50     0  00:00        0.00
  23179                JUNCTION  -nan(ind)     0.00     1.58     0  00:00        0.00
  23205                JUNCTION  -nan(ind)     0.00    -0.23     0  00:00        0.00
  23207                JUNCTION  -nan(ind)     0.00     1.36     0  00:00        0.00
  23220                JUNCTION  -nan(ind)     0.00     0.42     0  00:00        0.00
  23221                JUNCTION  -nan(ind)     0.00     0.67     0  00:00        0.00
  23227                JUNCTION  -nan(ind)     0.00     0.87     0  00:00        0.00
  23228                JUNCTION  -nan(ind)     0.00     0.38     0  00:00        0.00
  23229                JUNCTION  -nan(ind)     0.00     1.26     0  00:00        0.00
  23231                JUNCTION  -nan(ind)     0.00     1.71     0  00:00        0.00
  23232                JUNCTION  -nan(ind)     0.00    -0.12     0  00:00        0.00
  23233                JUNCTION  -nan(ind)     0.00    -0.15     0  00:00        0.00
  23237                JUNCTION  -nan(ind)     0.00     0.36     0  00:00        0.00
  23238                JUNCTION  -nan(ind)     0.00     2.10     0  00:00        0.00
  23239                JUNCTION  -nan(ind)     0.00     1.43     0  00:00        0.00
  23240                JUNCTION  -nan(ind)     0.00     1.28     0  00:00        0.00
  23448                JUNCTION  -nan(ind)     0.00     1.10     0  00:00        0.00
  23449                JUNCTION  -nan(ind)     0.00     1.07     0  00:00        0.00
  23451                JUNCTION  -nan(ind)     0.00     1.18     0  00:00        0.00
  23457                JUNCTION  -nan(ind)     0.00     1.30     0  00:00        0.00
  23518                JUNCTION  -nan(ind)     0.00     0.73     0  00:00        0.00
  23554                JUNCTION  -nan(ind)     0.00     0.97     0  00:00        0.00
  24053                JUNCTION  -nan(ind)     0.00     3.28     0  00:00        0.00
  24054                JUNCTION  -nan(ind)     0.00     3.14     0  00:00        0.00
  24056                JUNCTION  -nan(ind)     0.00     2.88     0  00:00        0.00
  24057                JUNCTION  -nan(ind)     0.00     2.86     0  00:00        0.00
  24058                JUNCTION  -nan(ind)     0.00     2.78     0  00:00        0.00
  24059                JUNCTION  -nan(ind)     0.00     2.65     0  00:00        0.00
  24060                JUNCTION  -nan(ind)     0.00     2.81     0  00:00        0.00
  24061                JUNCTION  -nan(ind)     0.00     3.28     0  00:00        0.00
  24062                JUNCTION  -nan(ind)     0.00     3.02     0  00:00        0.00
  24063                JUNCTION  -nan(ind)     0.00     3.51     0  00:00        0.00
  24064                JUNCTION  -nan(ind)     0.00     3.08     0  00:00        0.00
  24069                JUNCTION  -nan(ind)     0.00     3.62     0  00:00        0.00
  24073                JUNCTION  -nan(ind)     0.00     4.43     0  00:00        0.00
  24103                JUNCTION  -nan(ind)     0.00     2.95     0  00:00        0.00
  24104                JUNCTION  -nan(ind)     0.00     2.93     0  00:00        0.00
  242.37               JUNCTION  -nan(ind)     0.00     4.59     0  00:00        0.00
  242.37-2             JUNCTION  -nan(ind)     0.00     4.94     0  00:00        0.00
  25011                JUNCTION  -nan(ind)     0.00     7.10     0  00:00        0.00
  25315                JUNCTION  -nan(ind)     0.00     5.40     0  00:00        0.00
  25319                JUNCTION  -nan(ind)     0.00     0.21     0  00:00        0.00
  25322                JUNCTION  -nan(ind)     0.00     0.28     0  00:00        0.00
  25323                JUNCTION  -nan(ind)     0.00     0.33     0  00:00        0.00
  25325                JUNCTION  -nan(ind)     0.00     0.25     0  00:00        0.00
  25326                JUNCTION  -nan(ind)     0.00     0.23     0  00:00        0.00
  25327                JUNCTION  -nan(ind)     0.00     0.19     0  00:00        0.00
  26193                JUNCTION  -nan(ind)     0.00    16.44     0  00:00        0.00
  26194                JUNCTION  -nan(ind)     0.00    22.23     0  00:00        0.00
  26195                JUNCTION  -nan(ind)     0.00    25.16     0  00:00        0.00
  26196                JUNCTION  -nan(ind)     0.00    27.26     0  00:00        0.00
  26199                JUNCTION  -nan(ind)     0.00    14.17     0  00:00        0.00
  26359                JUNCTION  -nan(ind)     0.00     9.52     0  00:00        0.00
  27424                JUNCTION  -nan(ind)     0.00     3.33     0  00:00        0.00
  27430                JUNCTION  -nan(ind)     0.00    31.74     0  00:00        0.00
  27431                JUNCTION  -nan(ind)     0.00    29.40     0  00:00        0.00
  27432                JUNCTION  -nan(ind)     0.00     2.84     0  00:00        0.00
  27433                JUNCTION  -nan(ind)     0.00    10.40     0  00:00        0.00
  27434                JUNCTION  -nan(ind)     0.00     7.91     0  00:00        0.00
  27435                JUNCTION  -nan(ind)     0.00     5.33     0  00:00        0.00
  27436                JUNCTION  -nan(ind)     0.00     6.60     0  00:00        0.00
  27437                JUNCTION  -nan(ind)     0.00     4.98     0  00:00        0.00
  27438                JUNCTION  -nan(ind)     0.00     1.32     0  00:00        0.00
  GS-JCT-152           JUNCTION  -nan(ind)     0.00     2.23     0  00:00        0.00
  GS-JCT-154           JUNCTION  -nan(ind)     0.00     2.50     0  00:00        0.00
  GS-JCT-156           JUNCTION  -nan(ind)     0.00     2.57     0  00:00        0.00
  GS-JCT-184           JUNCTION  -nan(ind)     0.00     0.37     0  00:00        0.00
  GS-JCT-186           JUNCTION  -nan(ind)     0.00     7.04     0  00:00        0.00
  GS-JCT-190           JUNCTION  -nan(ind)     0.00     0.36     0  00:00        0.00
  GS-JCT-216           JUNCTION  -nan(ind)     0.00     1.43     0  00:00        0.00
  GS-JCT-220           JUNCTION  -nan(ind)     0.00     1.52     0  00:00        0.00
  GS-JCT-252           JUNCTION  -nan(ind)     0.00     2.45     0  00:00        0.00
  GS-JCT-254           JUNCTION  -nan(ind)     0.00     1.82     0  00:00        0.00
  GS-JCT-280           JUNCTION  -nan(ind)     0.00     2.60     0  00:00        0.00
  GS-JCT-342           JUNCTION  -nan(ind)     0.00    -0.10     0  00:00        0.00
  GS-JCT-376           JUNCTION  -nan(ind)     0.00     0.15     0  00:00        0.00
  RM-JCT-100           JUNCTION  -nan(ind)     0.00     5.32     0  00:00        0.00
  RM-JCT-102           JUNCTION  -nan(ind)     0.00    -0.44     0  00:00        0.00
  RM-JCT-104           JUNCTION  -nan(ind)     0.00    -0.63     0  00:00        0.00
  RM-JCT-106           JUNCTION  -nan(ind)     0.00    -0.69     0  00:00        0.00
  RM-JCT-108           JUNCTION  -nan(ind)     0.00    -0.49     0  00:00        0.00
  RM-JCT-110           JUNCTION  -nan(ind)     0.00    -0.39     0  00:00        0.00
  RM-JCT-114           JUNCTION  -nan(ind)     0.00    -0.75     0  00:00        0.00
  RM-JCT-116           JUNCTION  -nan(ind)     0.00    -0.18     0  00:00        0.00
  RM-JCT-118           JUNCTION  -nan(ind)     0.00     2.69     0  00:00        0.00
  RM-JCT-120           JUNCTION  -nan(ind)     0.00     5.80     0  00:00        0.00
  RM-JCT-122           JUNCTION  -nan(ind)     0.00     2.66     0  00:00        0.00
  RM-JCT-124           JUNCTION  -nan(ind)     0.00     5.33     0  00:00        0.00
  RM-JCT-126           JUNCTION  -nan(ind)     0.00     0.35     0  00:00        0.00
  RM-JCT-128           JUNCTION  -nan(ind)     0.00     0.10     0  00:00        0.00
  RM-JCT-130           JUNCTION  -nan(ind)     0.00     6.73     0  00:00        0.00
  RM-JCT-132           JUNCTION  -nan(ind)     0.00     7.05     0  00:00        0.00
  RM-JCT-134           JUNCTION  -nan(ind)     0.00     7.00     0  00:00        0.00
  RM-JCT-136           JUNCTION  -nan(ind)     0.00     9.09     0  00:00        0.00
  RM-JCT-138           JUNCTION  -nan(ind)     0.00     9.39     0  00:00        0.00
  RM-JCT-140           JUNCTION  -nan(ind)     0.00     8.05     0  00:00        0.00
  RM-JCT-142           JUNCTION  -nan(ind)     0.00     7.65     0  00:00        0.00
  RM-JCT-144           JUNCTION  -nan(ind)     0.00     7.55     0  00:00        0.00
  RM-JCT-146           JUNCTION  -nan(ind)     0.00     7.34     0  00:00        0.00
  RM-JCT-148           JUNCTION  -nan(ind)     0.00     5.23     0  00:00        0.00
  RM-JCT-150           JUNCTION  -nan(ind)     0.00     5.05     0  00:00        0.00
  RM-JCT-160           JUNCTION  -nan(ind)     0.00    -1.30     0  00:00        0.00
  RM-JCT-166           JUNCTION  -nan(ind)     0.00    -0.45     0  00:00        0.00
  RM-JCT-168           JUNCTION  -nan(ind)     0.00    -0.23     0  00:00        0.00
  RM-JCT-170           JUNCTION  -nan(ind)     0.00    -0.23     0  00:00        0.00
  RM-JCT-172           JUNCTION  -nan(ind)     0.00    -0.45     0  00:00        0.00
  RM-JCT-174           JUNCTION  -nan(ind)     0.00    -0.45     0  00:00        0.00
  RM-JCT-176           JUNCTION  -nan(ind)     0.00    -0.49     0  00:00        0.00
  RM-JCT-18            JUNCTION  -nan(ind)     0.00    14.45     0  00:00        0.00
  RM-JCT-192           JUNCTION  -nan(ind)     0.00    43.00     0  00:00        0.00
  RM-JCT-198           JUNCTION  -nan(ind)     0.00    20.30     0  00:00        0.00
  RM-JCT-20            JUNCTION  -nan(ind)     0.00    13.39     0  00:00        0.00
  RM-JCT-202           JUNCTION  -nan(ind)     0.00    15.74     0  00:00        0.00
  RM-JCT-204           JUNCTION  -nan(ind)     0.00    14.93     0  00:00        0.00
  RM-JCT-208           JUNCTION  -nan(ind)     0.00    33.17     0  00:00        0.00
  RM-JCT-210           JUNCTION  -nan(ind)     0.00    43.00     0  00:00        0.00
  RM-JCT-22            JUNCTION  -nan(ind)     0.00     2.90     0  00:00        0.00
  RM-JCT-226           JUNCTION  -nan(ind)     0.00    13.44     0  00:00        0.00
  RM-JCT-228           JUNCTION  -nan(ind)     0.00    14.00     0  00:00        0.00
  RM-JCT-22_A          JUNCTION  -nan(ind)     0.00     2.90     0  00:00        0.00
  RM-JCT-230           JUNCTION  -nan(ind)     0.00    17.25     0  00:00        0.00
  RM-JCT-236           JUNCTION  -nan(ind)     0.00     2.66     0  00:00        0.00
  RM-JCT-238           JUNCTION  -nan(ind)     0.00     2.11     0  00:00        0.00
  RM-JCT-238_2         JUNCTION  -nan(ind)     0.00     2.11     0  00:00        0.00
  RM-JCT-242           JUNCTION  -nan(ind)     0.00    16.85     0  00:00        0.00
  RM-JCT-246           JUNCTION  -nan(ind)     0.00    14.45     0  00:00        0.00
  RM-JCT-248           JUNCTION  -nan(ind)     0.00    13.39     0  00:00        0.00
  RM-JCT-250           JUNCTION  -nan(ind)     0.00    11.87     0  00:00        0.00
  RM-JCT-258           JUNCTION  -nan(ind)     0.00     7.05     0  00:00        0.00
  RM-JCT-26            JUNCTION  -nan(ind)     0.00    43.00     0  00:00        0.00
  RM-JCT-260           JUNCTION  -nan(ind)     0.00     6.73     0  00:00        0.00
  RM-JCT-262           JUNCTION  -nan(ind)     0.00     9.39     0  00:00        0.00
  RM-JCT-264           JUNCTION  -nan(ind)     0.00     9.09     0  00:00        0.00
  RM-JCT-266           JUNCTION  -nan(ind)     0.00     7.00     0  00:00        0.00
  RM-JCT-268           JUNCTION  -nan(ind)     0.00     0.10     0  00:00        0.00
  RM-JCT-270           JUNCTION  -nan(ind)     0.00     0.70     0  00:00        0.00
  RM-JCT-272           JUNCTION  -nan(ind)     0.00     5.33     0  00:00        0.00
  RM-JCT-274           JUNCTION  -nan(ind)     0.00    -1.82     0  00:00        0.00
  RM-JCT-276           JUNCTION  -nan(ind)     0.00    -0.39     0  00:00        0.00
  RM-JCT-278           JUNCTION  -nan(ind)     0.00    -0.69     0  00:00        0.00
  RM-JCT-28            JUNCTION  -nan(ind)     0.00    17.46     0  00:00        0.00
  RM-JCT-282           JUNCTION  -nan(ind)     0.00    -0.63     0  00:00        0.00
  RM-JCT-284           JUNCTION  -nan(ind)     0.00    -0.75     0  00:00        0.00
  RM-JCT-288           JUNCTION  -nan(ind)     0.00    28.76     0  00:00        0.00
  RM-JCT-290           JUNCTION  -nan(ind)     0.00    35.95     0  00:00        0.00
  RM-JCT-292           JUNCTION  -nan(ind)     0.00    23.72     0  00:00        0.00
  RM-JCT-294           JUNCTION  -nan(ind)     0.00    25.68     0  00:00        0.00
  RM-JCT-296           JUNCTION  -nan(ind)     0.00     5.32     0  00:00        0.00
  RM-JCT-298           JUNCTION  -nan(ind)     0.00    -0.44     0  00:00        0.00
  RM-JCT-30            JUNCTION  -nan(ind)     0.00    14.71     0  00:00        0.00
  RM-JCT-300           JUNCTION  -nan(ind)     0.00    -0.56     0  00:00        0.00
  RM-JCT-302           JUNCTION  -nan(ind)     0.00    26.27     0  00:00        0.00
  RM-JCT-304           JUNCTION  -nan(ind)     0.00    33.05     0  00:00        0.00
  RM-JCT-306           JUNCTION  -nan(ind)     0.00    15.79     0  00:00        0.00
  RM-JCT-308           JUNCTION  -nan(ind)     0.00    -0.18     0  00:00        0.00
  RM-JCT-310           JUNCTION  -nan(ind)     0.00     5.80     0  00:00        0.00
  RM-JCT-312           JUNCTION  -nan(ind)     0.00    21.43     0  00:00        0.00
  RM-JCT-314           JUNCTION  -nan(ind)     0.00    22.18     0  00:00        0.00
  RM-JCT-318           JUNCTION  -nan(ind)     0.00    10.51     0  00:00        0.00
  RM-JCT-32            JUNCTION  -nan(ind)     0.00    15.95     0  00:00        0.00
  RM-JCT-320           JUNCTION  -nan(ind)     0.00     1.71     0  00:00        0.00
  RM-JCT-322           JUNCTION  -nan(ind)     0.00     1.28     0  00:00        0.00
  RM-JCT-324           JUNCTION  -nan(ind)     0.00     2.85     0  00:00        0.00
  RM-JCT-326           JUNCTION  -nan(ind)     0.00     0.48     0  00:00        0.00
  RM-JCT-328           JUNCTION  -nan(ind)     0.00     5.23     0  00:00        0.00
  RM-JCT-334           JUNCTION  -nan(ind)     0.00     5.23     0  00:00        0.00
  RM-JCT-336           JUNCTION  -nan(ind)     0.00     3.79     0  00:00        0.00
  RM-JCT-338           JUNCTION  -nan(ind)     0.00     7.34     0  00:00        0.00
  RM-JCT-34            JUNCTION  -nan(ind)     0.00    13.44     0  00:00        0.00
  RM-JCT-340           JUNCTION  -nan(ind)     0.00     7.55     0  00:00        0.00
  RM-JCT-346           JUNCTION  -nan(ind)     0.00    43.00     0  00:00        0.00
  RM-JCT-348           JUNCTION  -nan(ind)     0.00    21.05     0  00:00        0.00
  RM-JCT-350           JUNCTION  -nan(ind)     0.00    17.46     0  00:00        0.00
  RM-JCT-352           JUNCTION  -nan(ind)     0.00    28.00     0  00:00        0.00
  RM-JCT-356           JUNCTION  -nan(ind)     0.00     1.26     0  00:00        0.00
  RM-JCT-358           JUNCTION  -nan(ind)     0.00     7.65     0  00:00        0.00
  RM-JCT-36            JUNCTION  -nan(ind)     0.00     2.81     0  00:00        0.00
  RM-JCT-360           JUNCTION  -nan(ind)     0.00     7.95     0  00:00        0.00
  RM-JCT-362           JUNCTION  -nan(ind)     0.00     8.05     0  00:00        0.00
  RM-JCT-370           JUNCTION  -nan(ind)     0.00    17.46     0  00:00        0.00
  RM-JCT-378           JUNCTION  -nan(ind)     0.00     2.55     0  00:00        0.00
  RM-JCT-378-3         JUNCTION  -nan(ind)     0.00     2.50     0  00:00        0.00
  RM-JCT-38            JUNCTION  -nan(ind)     0.00     6.60     0  00:00        0.00
  RM-JCT-380           JUNCTION  -nan(ind)     0.00     2.55     0  00:00        0.00
  RM-JCT-384           JUNCTION  -nan(ind)     0.00     4.94     0  00:00        0.00
  RM-JCT-386           JUNCTION  -nan(ind)     0.00    25.25     0  00:00        0.00
  RM-JCT-388           JUNCTION  -nan(ind)     0.00    28.00     0  00:00        0.00
  RM-JCT-390           JUNCTION  -nan(ind)     0.00    21.05     0  00:00        0.00
  RM-JCT-392           JUNCTION  -nan(ind)     0.00    20.30     0  00:00        0.00
  RM-JCT-394           JUNCTION  -nan(ind)     0.00    16.44     0  00:00        0.00
  RM-JCT-40            JUNCTION  -nan(ind)     0.00    27.26     0  00:00        0.00
  RM-JCT-42            JUNCTION  -nan(ind)     0.00    23.00     0  00:00        0.00
  RM-JCT-44            JUNCTION  -nan(ind)     0.00    22.23     0  00:00        0.00
  RM-JCT-48            JUNCTION  -nan(ind)     0.00    29.59     0  00:00        0.00
  RM-JCT-50            JUNCTION  -nan(ind)     0.00    29.53     0  00:00        0.00
  RM-JCT-52            JUNCTION  -nan(ind)     0.00    33.17     0  00:00        0.00
  RM-JCT-54            JUNCTION  -nan(ind)     0.00    27.67     0  00:00        0.00
  RM-JCT-56            JUNCTION  -nan(ind)     0.00    22.08     0  00:00        0.00
  RM-JCT-58            JUNCTION  -nan(ind)     0.00    17.46     0  00:00        0.00
  RM-JCT-60            JUNCTION  -nan(ind)     0.00    17.25     0  00:00        0.00
  RM-JCT-64            JUNCTION  -nan(ind)     0.00    25.25     0  00:00        0.00
  RM-JCT-66            JUNCTION  -nan(ind)     0.00    14.00     0  00:00        0.00
  RM-JCT-68            JUNCTION  -nan(ind)     0.00     5.23     0  00:00        0.00
  RM-JCT-70            JUNCTION  -nan(ind)     0.00     2.85     0  00:00        0.00
  RM-JCT-72            JUNCTION  -nan(ind)     0.00     0.48     0  00:00        0.00
  RM-JCT-74            JUNCTION  -nan(ind)     0.00     1.71     0  00:00        0.00
  RM-JCT-76            JUNCTION  -nan(ind)     0.00     1.28     0  00:00        0.00
  RM-JCT-78            JUNCTION  -nan(ind)     0.00    10.51     0  00:00        0.00
  RM-JCT-80            JUNCTION  -nan(ind)     0.00    11.87     0  00:00        0.00
  RM-JCT-82            JUNCTION  -nan(ind)     0.00    16.85     0  00:00        0.00
  RM-JCT-86            JUNCTION  -nan(ind)     0.00    21.43     0  00:00        0.00
  RM-JCT-88            JUNCTION  -nan(ind)     0.00    25.68     0  00:00        0.00
  RM-JCT-90            JUNCTION  -nan(ind)     0.00    28.76     0  00:00        0.00
  RM-JCT-92            JUNCTION  -nan(ind)     0.00    35.95     0  00:00        0.00
  RM-JCT-94            JUNCTION  -nan(ind)     0.00    33.05     0  00:00        0.00
  RM-JCT-96            JUNCTION  -nan(ind)     0.00    26.27     0  00:00        0.00
  RM-JCT-98            JUNCTION  -nan(ind)     0.00    15.79     0  00:00        0.00
  SELFS-PT-FLOW        JUNCTION  -nan(ind)     0.00    -0.50     0  00:00        0.00
  OFALL-SANDY-BAY-LONG OUTFALL   -nan(ind)     0.00    -0.35     0  00:00        0.00
  OFALL-SANDY-BAY-SHORT OUTFALL   -nan(ind)     0.00    -1.30     0  00:00        0.00
  SELF-PT-STP-INLET    OUTFALL   -nan(ind)     0.00     2.21     0  00:00        0.00
  BLINKING-BILLY-WET-WELL STORAGE   -nan(ind)     0.00    -1.38     0  00:00        0.00
  BOH_1                STORAGE   -nan(ind)     0.00    43.00     0  00:00        0.00
  BOH_2                STORAGE   -nan(ind)     0.00    43.00     0  00:00        0.00
  EFFLUENT-WET-WELL    STORAGE   -nan(ind)     0.00    -0.70     0  00:00        0.00
  SB-PS1-WET-WELL      STORAGE   -nan(ind)     0.00    -2.54     0  00:00        0.00
  SB-PS2-WET-WELL      STORAGE   -nan(ind)     0.00    -0.77     0  00:00        0.00
  
  
  *******************
  Node Inflow Summary
  *******************
  
  -------------------------------------------------------------------------------------------------
                                  Maximum  Maximum                  Lateral       Total        Flow
                                  Lateral    Total  Time of Max      Inflow      Inflow     Balance
                                   Inflow   Inflow   Occurrence      Volume      Volume       Error
  Node                 Type           LPS      LPS  days hr:min    10^6 ltr    10^6 ltr     Percent
  -------------------------------------------------------------------------------------------------
  000.00               JUNCTION      0.00     0.00     0  00:00           0           0       0.000 ltr
  000.00-2             JUNCTION      0.00     0.00     0  00:00           0           0       0.000 ltr
  179.73               JUNCTION      0.00     0.00     0  00:00           0           0       0.000 ltr
  179.73-2             JUNCTION      0.00     0.00     0  00:00           0           0       0.000 ltr
  18034                JUNCTION      0.00     0.00     0  00:00           0           0       0.000 ltr
  18037                JUNCTION      0.00     0.00     0  00:00           0           0       0.000 ltr
  18039                JUNCTION      0.00     0.00     0  00:00           0           0       0.000 ltr
  18137                JUNCTION      0.00     0.00     0  00:00           0           0       0.000 ltr
  18403                JUNCTION      0.00     0.00     0  00:00           0           0       0.000 ltr
  18404                JUNCTION      0.00     0.00     0  00:00           0           0       0.000 ltr
  18405                JUNCTION      0.00     0.00     0  00:00           0           0       0.000 ltr
  18406                JUNCTION      0.00     0.00     0  00:00           0           0       0.000 ltr
  19955                JUNCTION      0.00     0.00     0  00:00           0           0       0.000 ltr
  19956                JUNCTION      0.00     0.00     0  00:00           0           0       0.000 ltr
  19957                JUNCTION      0.00     0.00     0  00:00           0           0       0.000 ltr
  19958                JUNCTION      0.00     0.00     0  00:00           0           0       0.000 ltr
  19966                JUNCTION      0.00     0.00     0  00:00           0           0       0.000 ltr
  19995                JUNCTION      0.00     0.00     0  00:00           0           0       0.000 ltr
  19996                JUNCTION      0.00     0.00     0  00:00           0           0       0.000 ltr
  20002                JUNCTION      0.00     0.00     0  00:00           0           0       0.000 ltr
  20003                JUNCTION      0.00     0.00     0  00:00           0           0       0.000 ltr
  20011                JUNCTION      0.00     0.00     0  00:00           0           0       0.000 ltr
  20066                JUNCTION      0.00     0.00     0  00:00           0           0       0.000 ltr
  20069                JUNCTION      0.00     0.00     0  00:00           0           0       0.000 ltr
  20071                JUNCTION      0.00     0.00     0  00:00           0           0       0.000 ltr
  20072                JUNCTION      0.00     0.00     0  00:00           0           0       0.000 ltr
  20462                JUNCTION      0.00     0.00     0  00:00           0           0       0.000 ltr
  20560                JUNCTION      0.00     0.00     0  00:00           0           0       0.000 ltr
  20561                JUNCTION      0.00     0.00     0  00:00           0           0       0.000 ltr
  20562                JUNCTION      0.00     0.00     0  00:00           0           0       0.000 ltr
  22772                JUNCTION      0.00     0.00     0  00:00           0           0       0.000 ltr
  22776                JUNCTION      0.00     0.00     0  00:00           0           0       0.000 ltr
  22777                JUNCTION      0.00     0.00     0  00:00           0           0       0.000 ltr
  23178                JUNCTION      0.00     0.00     0  00:00           0           0       0.000 ltr
  23179                JUNCTION      0.00     0.00     0  00:00           0           0       0.000 ltr
  23205                JUNCTION      0.00     0.00     0  00:00           0           0       0.000 ltr
  23207                JUNCTION      0.00     0.00     0  00:00           0           0       0.000 ltr
  23220                JUNCTION      0.00     0.00     0  00:00           0           0       0.000 ltr
  23221                JUNCTION      0.00     0.00     0  00:00           0           0       0.000 ltr
  23227                JUNCTION      0.00     0.00     0  00:00           0           0       0.000 ltr
  23228                JUNCTION      0.00     0.00     0  00:00           0           0       0.000 ltr
  23229                JUNCTION      0.00     0.00     0  00:00           0           0       0.000 ltr
  23231                JUNCTION      0.00     0.00     0  00:00           0           0       0.000 ltr
  23232                JUNCTION      0.00     0.00     0  00:00           0           0       0.000 ltr
  23233                JUNCTION      0.00     0.00     0  00:00           0           0       0.000 ltr
  23237                JUNCTION      0.00     0.00     0  00:00           0           0       0.000 ltr
  23238                JUNCTION      0.00     0.00     0  00:00           0           0       0.000 ltr
  23239                JUNCTION      0.00     0.00     0  00:00           0           0       0.000 ltr
  23240                JUNCTION      0.00     0.00     0  00:00           0           0       0.000 ltr
  23448                JUNCTION      0.00     0.00     0  00:00           0           0       0.000 ltr
  23449                JUNCTION      0.00     0.00     0  00:00           0           0       0.000 ltr
  23451                JUNCTION      0.00     0.00     0  00:00           0           0       0.000 ltr
  23457                JUNCTION      0.00     0.00     0  00:00           0           0       0.000 ltr
  23518                JUNCTION      0.00     0.00     0  00:00           0           0       0.000 ltr
  23554                JUNCTION      0.00     0.00     0  00:00           0           0       0.000 ltr
  24053                JUNCTION      0.00     0.00     0  00:00           0           0       0.000 ltr
  24054                JUNCTION      0.00     0.00     0  00:00           0           0       0.000 ltr
  24056                JUNCTION      0.00     0.00     0  00:00           0           0       0.000 ltr
  24057                JUNCTION      0.00     0.00     0  00:00           0           0       0.000 ltr
  24058                JUNCTION      0.00     0.00     0  00:00           0           0       0.000 ltr
  24059                JUNCTION      0.00     0.00     0  00:00           0           0       0.000 ltr
  24060                JUNCTION      0.00     0.00     0  00:00           0           0       0.000 ltr
  24061                JUNCTION      0.00     0.00     0  00:00           0           0       0.000 ltr
  24062                JUNCTION      0.00     0.00     0  00:00           0           0       0.000 ltr
  24063                JUNCTION      0.00     0.00     0  00:00           0           0       0.000 ltr
  24064                JUNCTION      0.00     0.00     0  00:00           0           0       0.000 ltr
  24069                JUNCTION      0.00     0.00     0  00:00           0           0       0.000 ltr
  24073                JUNCTION      0.00     0.00     0  00:00           0           0       0.000 ltr
  24103                JUNCTION      0.00     0.00     0  00:00           0           0       0.000 ltr
  24104                JUNCTION      0.00     0.00     0  00:00           0           0       0.000 ltr
  242.37               JUNCTION      0.00     0.00     0  00:00           0           0       0.000 ltr
  242.37-2             JUNCTION      0.00     0.00     0  00:00           0           0       0.000 ltr
  25011                JUNCTION      0.00     0.00     0  00:00           0           0       0.000 ltr
  25315                JUNCTION      0.00     0.00     0  00:00           0           0       0.000 ltr
  25319                JUNCTION      0.00     0.00     0  00:00           0           0       0.000 ltr
  25322                JUNCTION      0.00     0.00     0  00:00           0           0       0.000 ltr
  25323                JUNCTION      0.00     0.00     0  00:00           0           0       0.000 ltr
  25325                JUNCTION      0.00     0.00     0  00:00           0           0       0.000 ltr
  25326                JUNCTION      0.00     0.00     0  00:00           0           0       0.000 ltr
  25327                JUNCTION      0.00     0.00     0  00:00           0           0       0.000 ltr
  26193                JUNCTION      0.00     0.00     0  00:00           0           0       0.000 ltr
  26194                JUNCTION      0.00     0.00     0  00:00           0           0       0.000 ltr
  26195                JUNCTION      0.00     0.00     0  00:00           0           0       0.000 ltr
  26196                JUNCTION      0.00     0.00     0  00:00           0           0       0.000 ltr
  26199                JUNCTION      0.00     0.00     0  00:00           0           0       0.000 ltr
  26359                JUNCTION      0.00     0.00     0  00:00           0           0       0.000 ltr
  27424                JUNCTION      0.00     0.00     0  00:00           0           0       0.000 ltr
  27430                JUNCTION      0.00     0.00     0  00:00           0           0       0.000 ltr
  27431                JUNCTION      0.00     0.00     0  00:00           0           0       0.000 ltr
  27432                JUNCTION      0.00     0.00     0  00:00           0           0       0.000 ltr
  27433                JUNCTION      0.00     0.00     0  00:00           0           0       0.000 ltr
  27434                JUNCTION      0.00     0.00     0  00:00           0           0       0.000 ltr
  27435                JUNCTION      0.00     0.00     0  00:00           0           0       0.000 ltr
  27436                JUNCTION      0.00     0.00     0  00:00           0           0       0.000 ltr
  27437                JUNCTION      0.00     0.00     0  00:00           0           0       0.000 ltr
  27438                JUNCTION      0.00     0.00     0  00:00           0           0       0.000 ltr
  GS-JCT-152           JUNCTION      0.00     0.00     0  00:00           0           0       0.000 ltr
  GS-JCT-154           JUNCTION      0.00     0.00     0  00:00           0           0       0.000 ltr
  GS-JCT-156           JUNCTION      0.00     0.00     0  00:00           0           0       0.000 ltr
  GS-JCT-184           JUNCTION      0.00     0.00     0  00:00           0           0       0.000 ltr
  GS-JCT-186           JUNCTION      0.00     0.00     0  00:00           0           0       0.000 ltr
  GS-JCT-190           JUNCTION      0.00     0.00     0  00:00           0           0       0.000 ltr
  GS-JCT-216           JUNCTION      0.00     0.00     0  00:00           0           0       0.000 ltr
  GS-JCT-220           JUNCTION      0.00     0.00     0  00:00           0           0       0.000 ltr
  GS-JCT-252           JUNCTION      0.00     0.00     0  00:00           0           0       0.000 ltr
  GS-JCT-254           JUNCTION      0.00     0.00     0  00:00           0           0       0.000 ltr
  GS-JCT-280           JUNCTION      0.00     0.00     0  00:00           0           0       0.000 ltr
  GS-JCT-342           JUNCTION      0.00     0.00     0  00:00           0           0       0.000 ltr
  GS-JCT-376           JUNCTION      0.00     0.00     0  00:00           0           0       0.000 ltr
  RM-JCT-100           JUNCTION      0.00     0.00     0  00:00           0           0       0.000 ltr
  RM-JCT-102           JUNCTION      0.00     0.00     0  00:00           0           0       0.000 ltr
  RM-JCT-104           JUNCTION      0.00     0.00     0  00:00           0           0       0.000 ltr
  RM-JCT-106           JUNCTION      0.00     0.00     0  00:00           0           0       0.000 ltr
  RM-JCT-108           JUNCTION      0.00     0.00     0  00:00           0           0       0.000 ltr
  RM-JCT-110           JUNCTION      0.00     0.00     0  00:00           0           0       0.000 ltr
  RM-JCT-114           JUNCTION      0.00     0.00     0  00:00           0           0       0.000 ltr
  RM-JCT-116           JUNCTION      0.00     0.00     0  00:00           0           0       0.000 ltr
  RM-JCT-118           JUNCTION      0.00     0.00     0  00:00           0           0       0.000 ltr
  RM-JCT-120           JUNCTION      0.00     0.00     0  00:00           0           0       0.000 ltr
  RM-JCT-122           JUNCTION      0.00     0.00     0  00:00           0           0       0.000 ltr
  RM-JCT-124           JUNCTION      0.00     0.00     0  00:00           0           0       0.000 ltr
  RM-JCT-126           JUNCTION      0.00     0.00     0  00:00           0           0       0.000 ltr
  RM-JCT-128           JUNCTION      0.00     0.00     0  00:00           0           0       0.000 ltr
  RM-JCT-130           JUNCTION      0.00     0.00     0  00:00           0           0       0.000 ltr
  RM-JCT-132           JUNCTION      0.00     0.00     0  00:00           0           0       0.000 ltr
  RM-JCT-134           JUNCTION      0.00     0.00     0  00:00           0           0       0.000 ltr
  RM-JCT-136           JUNCTION      0.00     0.00     0  00:00           0           0       0.000 ltr
  RM-JCT-138           JUNCTION      0.00     0.00     0  00:00           0           0       0.000 ltr
  RM-JCT-140           JUNCTION      0.00     0.00     0  00:00           0           0       0.000 ltr
  RM-JCT-142           JUNCTION      0.00     0.00     0  00:00           0           0       0.000 ltr
  RM-JCT-144           JUNCTION      0.00     0.00     0  00:00           0           0       0.000 ltr
  RM-JCT-146           JUNCTION      0.00     0.00     0  00:00           0           0       0.000 ltr
  RM-JCT-148           JUNCTION      0.00     0.00     0  00:00           0           0       0.000 ltr
  RM-JCT-150           JUNCTION      0.00     0.00     0  00:00           0           0       0.000 ltr
  RM-JCT-160           JUNCTION      0.00     0.00     0  00:00           0           0       0.000 ltr
  RM-JCT-166           JUNCTION      0.00     0.00     0  00:00           0           0       0.000 ltr
  RM-JCT-168           JUNCTION      0.00     0.00     0  00:00           0           0       0.000 ltr
  RM-JCT-170           JUNCTION      0.00     0.00     0  00:00           0           0       0.000 ltr
  RM-JCT-172           JUNCTION      0.00     0.00     0  00:00           0           0       0.000 ltr
  RM-JCT-174           JUNCTION      0.00     0.00     0  00:00           0           0       0.000 ltr
  RM-JCT-176           JUNCTION      0.00     0.00     0  00:00           0           0       0.000 ltr
  RM-JCT-18            JUNCTION      0.00     0.00     0  00:00           0           0       0.000 ltr
  RM-JCT-192           JUNCTION      0.00     0.00     0  00:00           0           0       0.000 ltr
  RM-JCT-198           JUNCTION      0.00     0.00     0  00:00           0           0       0.000 ltr
  RM-JCT-20            JUNCTION      0.00     0.00     0  00:00           0           0       0.000 ltr
  RM-JCT-202           JUNCTION      0.00     0.00     0  00:00           0           0       0.000 ltr
  RM-JCT-204           JUNCTION      0.00     0.00     0  00:00           0           0       0.000 ltr
  RM-JCT-208           JUNCTION      0.00     0.00     0  00:00           0           0       0.000 ltr
  RM-JCT-210           JUNCTION      0.00     0.00     0  00:00           0           0       0.000 ltr
  RM-JCT-22            JUNCTION      0.00     0.00     0  00:00           0           0       0.000 ltr
  RM-JCT-226           JUNCTION      0.00     0.00     0  00:00           0           0       0.000 ltr
  RM-JCT-228           JUNCTION      0.00     0.00     0  00:00           0           0       0.000 ltr
  RM-JCT-22_A          JUNCTION      0.00     0.00     0  00:00           0           0       0.000 ltr
  RM-JCT-230           JUNCTION      0.00     0.00     0  00:00           0           0       0.000 ltr
  RM-JCT-236           JUNCTION      0.00     0.00     0  00:00           0           0       0.000 ltr
  RM-JCT-238           JUNCTION      0.00     0.00     0  00:00           0           0       0.000 ltr
  RM-JCT-238_2         JUNCTION      0.00     0.00     0  00:00           0           0       0.000 ltr
  RM-JCT-242           JUNCTION      0.00     0.00     0  00:00           0           0       0.000 ltr
  RM-JCT-246           JUNCTION      0.00     0.00     0  00:00           0           0       0.000 ltr
  RM-JCT-248           JUNCTION      0.00     0.00     0  00:00           0           0       0.000 ltr
  RM-JCT-250           JUNCTION      0.00     0.00     0  00:00           0           0       0.000 ltr
  RM-JCT-258           JUNCTION      0.00     0.00     0  00:00           0           0       0.000 ltr
  RM-JCT-26            JUNCTION      0.00     0.00     0  00:00           0           0       0.000 ltr
  RM-JCT-260           JUNCTION      0.00     0.00     0  00:00           0           0       0.000 ltr
  RM-JCT-262           JUNCTION      0.00     0.00     0  00:00           0           0       0.000 ltr
  RM-JCT-264           JUNCTION      0.00     0.00     0  00:00           0           0       0.000 ltr
  RM-JCT-266           JUNCTION      0.00     0.00     0  00:00           0           0       0.000 ltr
  RM-JCT-268           JUNCTION      0.00     0.00     0  00:00           0           0       0.000 ltr
  RM-JCT-270           JUNCTION      0.00     0.00     0  00:00           0           0       0.000 ltr
  RM-JCT-272           JUNCTION      0.00     0.00     0  00:00           0           0       0.000 ltr
  RM-JCT-274           JUNCTION      0.00     0.00     0  00:00           0           0       0.000 ltr
  RM-JCT-276           JUNCTION      0.00     0.00     0  00:00           0           0       0.000 ltr
  RM-JCT-278           JUNCTION      0.00     0.00     0  00:00           0           0       0.000 ltr
  RM-JCT-28            JUNCTION      0.00     0.00     0  00:00           0           0       0.000 ltr
  RM-JCT-282           JUNCTION      0.00     0.00     0  00:00           0           0       0.000 ltr
  RM-JCT-284           JUNCTION      0.00     0.00     0  00:00           0           0       0.000 ltr
  RM-JCT-288           JUNCTION      0.00     0.00     0  00:00           0           0       0.000 ltr
  RM-JCT-290           JUNCTION      0.00     0.00     0  00:00           0           0       0.000 ltr
  RM-JCT-292           JUNCTION      0.00     0.00     0  00:00           0           0       0.000 ltr
  RM-JCT-294           JUNCTION      0.00     0.00     0  00:00           0           0       0.000 ltr
  RM-JCT-296           JUNCTION      0.00     0.00     0  00:00           0           0       0.000 ltr
  RM-JCT-298           JUNCTION      0.00     0.00     0  00:00           0           0       0.000 ltr
  RM-JCT-30            JUNCTION      0.00     0.00     0  00:00           0           0       0.000 ltr
  RM-JCT-300           JUNCTION      0.00     0.00     0  00:00           0           0       0.000 ltr
  RM-JCT-302           JUNCTION      0.00     0.00     0  00:00           0           0       0.000 ltr
  RM-JCT-304           JUNCTION      0.00     0.00     0  00:00           0           0       0.000 ltr
  RM-JCT-306           JUNCTION      0.00     0.00     0  00:00           0           0       0.000 ltr
  RM-JCT-308           JUNCTION      0.00     0.00     0  00:00           0           0       0.000 ltr
  RM-JCT-310           JUNCTION      0.00     0.00     0  00:00           0           0       0.000 ltr
  RM-JCT-312           JUNCTION      0.00     0.00     0  00:00           0           0       0.000 ltr
  RM-JCT-314           JUNCTION      0.00     0.00     0  00:00           0           0       0.000 ltr
  RM-JCT-318           JUNCTION      0.00     0.00     0  00:00           0           0       0.000 ltr
  RM-JCT-32            JUNCTION      0.00     0.00     0  00:00           0           0       0.000 ltr
  RM-JCT-320           JUNCTION      0.00     0.00     0  00:00           0           0       0.000 ltr
  RM-JCT-322           JUNCTION      0.00     0.00     0  00:00           0           0       0.000 ltr
  RM-JCT-324           JUNCTION      0.00     0.00     0  00:00           0           0       0.000 ltr
  RM-JCT-326           JUNCTION      0.00     0.00     0  00:00           0           0       0.000 ltr
  RM-JCT-328           JUNCTION      0.00     0.00     0  00:00           0           0       0.000 ltr
  RM-JCT-334           JUNCTION      0.00     0.00     0  00:00           0           0       0.000 ltr
  RM-JCT-336           JUNCTION      0.00     0.00     0  00:00           0           0       0.000 ltr
  RM-JCT-338           JUNCTION      0.00     0.00     0  00:00           0           0       0.000 ltr
  RM-JCT-34            JUNCTION      0.00     0.00     0  00:00           0           0       0.000 ltr
  RM-JCT-340           JUNCTION      0.00     0.00     0  00:00           0           0       0.000 ltr
  RM-JCT-346           JUNCTION      0.00     0.00     0  00:00           0           0       0.000 ltr
  RM-JCT-348           JUNCTION      0.00     0.00     0  00:00           0           0       0.000 ltr
  RM-JCT-350           JUNCTION      0.00     0.00     0  00:00           0           0       0.000 ltr
  RM-JCT-352           JUNCTION      0.00     0.00     0  00:00           0           0       0.000 ltr
  RM-JCT-356           JUNCTION      0.00     0.00     0  00:00           0           0       0.000 ltr
  RM-JCT-358           JUNCTION      0.00     0.00     0  00:00           0           0       0.000 ltr
  RM-JCT-36            JUNCTION      0.00     0.00     0  00:00           0           0       0.000 ltr
  RM-JCT-360           JUNCTION      0.00     0.00     0  00:00           0           0       0.000 ltr
  RM-JCT-362           JUNCTION      0.00     0.00     0  00:00           0           0       0.000 ltr
  RM-JCT-370           JUNCTION      0.00     0.00     0  00:00           0           0       0.000 ltr
  RM-JCT-378           JUNCTION      0.00     0.00     0  00:00           0           0       0.000 ltr
  RM-JCT-378-3         JUNCTION      0.00     0.00     0  00:00           0           0       0.000 ltr
  RM-JCT-38            JUNCTION      0.00     0.00     0  00:00           0           0       0.000 ltr
  RM-JCT-380           JUNCTION      0.00     0.00     0  00:00           0           0       0.000 ltr
  RM-JCT-384           JUNCTION      0.00     0.00     0  00:00           0           0       0.000 ltr
  RM-JCT-386           JUNCTION      0.00     0.00     0  00:00           0           0       0.000 ltr
  RM-JCT-388           JUNCTION      0.00     0.00     0  00:00           0           0       0.000 ltr
  RM-JCT-390           JUNCTION      0.00     0.00     0  00:00           0           0       0.000 ltr
  RM-JCT-392           JUNCTION      0.00     0.00     0  00:00           0           0       0.000 ltr
  RM-JCT-394           JUNCTION      0.00     0.00     0  00:00           0           0       0.000 ltr
  RM-JCT-40            JUNCTION      0.00     0.00     0  00:00           0           0       0.000 ltr
  RM-JCT-42            JUNCTION      0.00     0.00     0  00:00           0           0       0.000 ltr
  RM-JCT-44            JUNCTION      0.00     0.00     0  00:00           0           0       0.000 ltr
  RM-JCT-48            JUNCTION      0.00     0.00     0  00:00           0           0       0.000 ltr
  RM-JCT-50            JUNCTION      0.00     0.00     0  00:00           0           0       0.000 ltr
  RM-JCT-52            JUNCTION      0.00     0.00     0  00:00           0           0       0.000 ltr
  RM-JCT-54            JUNCTION      0.00     0.00     0  00:00           0           0       0.000 ltr
  RM-JCT-56            JUNCTION      0.00     0.00     0  00:00           0           0       0.000 ltr
  RM-JCT-58            JUNCTION      0.00     0.00     0  00:00           0           0       0.000 ltr
  RM-JCT-60            JUNCTION      0.00     0.00     0  00:00           0           0       0.000 ltr
  RM-JCT-64            JUNCTION      0.00     0.00     0  00:00           0           0       0.000 ltr
  RM-JCT-66            JUNCTION      0.00     0.00     0  00:00           0           0       0.000 ltr
  RM-JCT-68            JUNCTION      0.00     0.00     0  00:00           0           0       0.000 ltr
  RM-JCT-70            JUNCTION      0.00     0.00     0  00:00           0           0       0.000 ltr
  RM-JCT-72            JUNCTION      0.00     0.00     0  00:00           0           0       0.000 ltr
  RM-JCT-74            JUNCTION      0.00     0.00     0  00:00           0           0       0.000 ltr
  RM-JCT-76            JUNCTION      0.00     0.00     0  00:00           0           0       0.000 ltr
  RM-JCT-78            JUNCTION      0.00     0.00     0  00:00           0           0       0.000 ltr
  RM-JCT-80            JUNCTION      0.00     0.00     0  00:00           0           0       0.000 ltr
  RM-JCT-82            JUNCTION      0.00     0.00     0  00:00           0           0       0.000 ltr
  RM-JCT-86            JUNCTION      0.00     0.00     0  00:00           0           0       0.000 ltr
  RM-JCT-88            JUNCTION      0.00     0.00     0  00:00           0           0       0.000 ltr
  RM-JCT-90            JUNCTION      0.00     0.00     0  00:00           0           0       0.000 ltr
  RM-JCT-92            JUNCTION      0.00     0.00     0  00:00           0           0       0.000 ltr
  RM-JCT-94            JUNCTION      0.00     0.00     0  00:00           0           0       0.000 ltr
  RM-JCT-96            JUNCTION      0.00     0.00     0  00:00           0           0       0.000 ltr
  RM-JCT-98            JUNCTION      0.00     0.00     0  00:00           0           0       0.000 ltr
  SELFS-PT-FLOW        JUNCTION      0.00     0.00     0  00:00           0           0       0.000 ltr
  OFALL-SANDY-BAY-LONG OUTFALL       0.00     0.00     0  00:00           0           0       0.000 ltr
  OFALL-SANDY-BAY-SHORT OUTFALL       0.00     0.00     0  00:00           0           0       0.000 ltr
  SELF-PT-STP-INLET    OUTFALL       0.00     0.00     0  00:00           0           0       0.000 ltr
  BLINKING-BILLY-WET-WELL STORAGE       0.00     0.00     0  00:00           0     0.00167       0.000
  BOH_1                STORAGE       0.00     0.00     0  00:00           0           0       0.000 ltr
  BOH_2                STORAGE       0.00     0.00     0  00:00           0           0       0.000 ltr
  EFFLUENT-WET-WELL    STORAGE       0.00     0.00     0  00:00           0      0.0506       0.000
  SB-PS1-WET-WELL      STORAGE       0.00     0.00     0  00:00           0      0.0442       0.000
  SB-PS2-WET-WELL      STORAGE       0.00     0.00     0  00:00           0      0.0543       0.000
  
  
  **********************
  Node Surcharge Summary
  **********************
  
  No nodes were surcharged.
  
  
  *********************
  Node Flooding Summary
  *********************
  
  No nodes were flooded.
  
  
  **********************
  Storage Volume Summary
  **********************
  
  --------------------------------------------------------------------------------------------------
                         Average     Avg  Evap Exfil       Maximum     Max    Time of Max    Maximum
                          Volume    Pcnt  Pcnt  Pcnt        Volume    Pcnt     Occurrence    Outflow
  Storage Unit           1000 m3    Full  Loss  Loss       1000 m3    Full    days hr:min        LPS
  --------------------------------------------------------------------------------------------------
  BLINKING-BILLY-WET-WELL -nan(ind)    -nan(ind)     0     0         0.000       0       0  00:00       0.00
  BOH_1                -nan(ind)    -nan(ind)     0     0         0.000       0       0  00:00       0.00
  BOH_2                -nan(ind)    -nan(ind)     0     0         0.000       0       0  00:00       0.00
  EFFLUENT-WET-WELL    -nan(ind)    -nan(ind)     0     0         0.000       0       0  00:00       0.00
  SB-PS1-WET-WELL      -nan(ind)    -nan(ind)     0     0         0.000       0       0  00:00       0.00
  SB-PS2-WET-WELL      -nan(ind)    -nan(ind)     0     0         0.000       0       0  00:00       0.00
  
  
  ***********************
  Outfall Loading Summary
  ***********************
  
  -----------------------------------------------------------
                         Flow       Avg       Max       Total
                         Freq      Flow      Flow      Volume
  Outfall Node           Pcnt       LPS       LPS    10^6 ltr
  -----------------------------------------------------------
  OFALL-SANDY-BAY-LONG-nan(ind)      0.00      0.00       0.000
  OFALL-SANDY-BAY-SHORT-nan(ind)      0.00      0.00       0.000
  SELF-PT-STP-INLET   -nan(ind)      0.00      0.00       0.000
  -----------------------------------------------------------
  System              -nan(ind)      0.00      0.00       0.000
  
  
  ********************
  Link Flow Summary
  ********************
  
  -----------------------------------------------------------------------------
                                 Maximum  Time of Max   Maximum    Max/    Max/
                                  |Flow|   Occurrence   |Veloc|    Full    Full
  Link                 Type          LPS  days hr:min     m/sec    Flow   Depth
  -----------------------------------------------------------------------------
  87772                CONDUIT      0.00     0  00:00      0.00    0.00    0.00
  87783                CONDUIT      0.00     0  00:00      0.00    0.00    0.00
  87783_2              CONDUIT      0.00     0  00:00      0.00    0.00    0.00
  87784                CONDUIT      0.00     0  00:00      0.00    0.00    0.00
  87794                CONDUIT      0.00     0  00:00      0.00    0.00    0.00
  87795                CONDUIT      0.00     0  00:00      0.00    0.00    0.00
  87796                CONDUIT      0.00     0  00:00      0.00    0.00    0.00
  87797                CONDUIT      0.00     0  00:00      0.00    0.00    0.00
  87798                CONDUIT      0.00     0  00:00      0.00    0.00    0.00
  87799                CONDUIT      0.00     0  00:00      0.00    0.00    0.00
  87800                CONDUIT      0.00     0  00:00      0.00    0.00    0.00
  87801                CONDUIT      0.00     0  00:00      0.00    0.00    0.00
  87802                CONDUIT      0.00     0  00:00      0.00    0.00    0.00
  87803                CONDUIT      0.00     0  00:00      0.00    0.00    0.00
  87804                CONDUIT      0.00     0  00:00      0.00    0.00    0.00
  87805                CONDUIT      0.00     0  00:00      0.00    0.00    0.00
  87806                CONDUIT      0.00     0  00:00      0.00    0.00    0.00
  87806-3              CONDUIT      0.00     0  00:00      0.00    0.00    0.00
  87806-4              CONDUIT      0.00     0  00:00      0.00    0.00    0.00
  87807                CONDUIT      0.00     0  00:00      0.00    0.00    0.00
  87808                CONDUIT      0.00     0  00:00      0.00    0.00    0.00
  87809                CONDUIT      0.00     0  00:00      0.00    0.00    0.00
  87810                CONDUIT      0.00     0  00:00      0.00    0.00    0.00
  87811                CONDUIT      0.00     0  00:00      0.00    0.00    0.00
  87812                CONDUIT      0.00     0  00:00      0.00    0.00    0.00
  87813                CONDUIT      0.00     0  00:00      0.00    0.00    0.00
  87814                CONDUIT      0.00     0  00:00      0.00    0.00    0.00
  87815                CONDUIT      0.00     0  00:00      0.00    0.00    0.00
  87816                CONDUIT      0.00     0  00:00      0.00    0.00    0.00
  87817                CONDUIT      0.00     0  00:00      0.00    0.00    0.00
  87818                CONDUIT      0.00     0  00:00      0.00    0.00    0.00
  87819                CONDUIT      0.00     0  00:00      0.00    0.00    0.00
  87820                CONDUIT      0.00     0  00:00      0.00    0.00    0.00
  87821                CONDUIT      0.00     0  00:00      0.00    0.00    0.00
  87822                CONDUIT      0.00     0  00:00      0.00    0.00    0.00
  87823                CONDUIT      0.00     0  00:00      0.00    0.00    0.00
  87824                CONDUIT      0.00     0  00:00      0.00    0.00    0.00
  87825                CONDUIT      0.00     0  00:00      0.00    0.00    0.00
  87826                CONDUIT      0.00     0  00:00      0.00    0.00    0.00
  87827                CONDUIT      0.00     0  00:00      0.00    0.00    0.00
  87828                CONDUIT      0.00     0  00:00      0.00    0.00    0.00
  87829                CONDUIT      0.00     0  00:00      0.00    0.00    0.00
  87830                CONDUIT      0.00     0  00:00      0.00    0.00    0.00
  87831                CONDUIT      0.00     0  00:00      0.00    0.00    0.00
  87832                CONDUIT      0.00     0  00:00      0.00    0.00    0.00
  87833                CONDUIT      0.00     0  00:00      0.00    0.00    0.00
  87834                CONDUIT      0.00     0  00:00      0.00    0.00    0.00
  87835                CONDUIT      0.00     0  00:00      0.00    0.00    0.00
  87836                CONDUIT      0.00     0  00:00      0.00    0.00    0.00
  87836-2              CONDUIT      0.00     0  00:00      0.00    0.00    0.00
  87837                CONDUIT      0.00     0  00:00      0.00    0.00    0.00
  87838                CONDUIT      0.00     0  00:00      0.00    0.00    0.00
  87839                CONDUIT      0.00     0  00:00      0.00    0.00    0.00
  87840                CONDUIT      0.00     0  00:00      0.00    0.00    0.00
  87841                CONDUIT      0.00     0  00:00      0.00    0.00    0.00
  87842                CONDUIT      0.00     0  00:00      0.00    0.00    0.00
  87843                CONDUIT      0.00     0  00:00      0.00    0.00    0.00
  87844                CONDUIT      0.00     0  00:00      0.00    0.00    0.00
  87845                CONDUIT      0.00     0  00:00      0.00    0.00    0.00
  87846                CONDUIT      0.00     0  00:00      0.00    0.00    0.00
  87847                CONDUIT      0.00     0  00:00      0.00    0.00    0.00
  87848                CONDUIT      0.00     0  00:00      0.00    0.00    0.00
  87849                CONDUIT      0.00     0  00:00      0.00    0.00    0.00
  87849-2              CONDUIT      0.00     0  00:00      0.00    0.00    0.00
  87849-3              CONDUIT      0.00     0  00:00      0.00    0.00    0.00
  87850                CONDUIT      0.00     0  00:00      0.00    0.00    0.00
  87850-2              CONDUIT      0.00     0  00:00      0.00    0.00    0.00
  87850-3              CONDUIT      0.00     0  00:00      0.00    0.00    0.00
  87852                CONDUIT      0.00     0  00:00      0.00    0.00    0.00
  8787493-3            CONDUIT      0.00     0  00:00      0.00    0.00    0.00
  88084                CONDUIT      0.00     0  00:00      0.00    0.00    0.00
  88794                CONDUIT      0.00     0  00:00      0.00    0.00    0.00
  88795                CONDUIT      0.00     0  00:00      0.00    0.00    0.00
  88796                CONDUIT      0.00     0  00:00      0.00    0.00    0.00
  88797                CONDUIT      0.00     0  00:00      0.00    0.00    0.00
  88798                CONDUIT      0.00     0  00:00      0.00    0.00    0.00
  88799                CONDUIT      0.00     0  00:00      0.00    0.00    0.00
  88800                CONDUIT      0.00     0  00:00      0.00    0.00    0.00
  88801                CONDUIT      0.00     0  00:00      0.00    0.00    0.00
  89358                CONDUIT      0.00     0  00:00      0.00    0.00    0.00
  91183                CONDUIT      0.00     0  00:00      0.00    0.00    0.00
  91184                CONDUIT      0.00     0  00:00      0.00    0.00    0.00
  91351                CONDUIT      0.00     0  00:00      0.00    0.00    0.00
  91352                CONDUIT      0.00     0  00:00      0.00    0.00    0.00
  91353                CONDUIT      0.00     0  00:00      0.00    0.00    0.00
  91354                CONDUIT      0.00     0  00:00      0.00    0.00    0.00
  91356                CONDUIT      0.00     0  00:00      0.00    0.00    0.00
  91357                CONDUIT      0.00     0  00:00      0.00    0.00    0.00
  91358                CONDUIT      0.00     0  00:00      0.00    0.00    0.00
  91440                CONDUIT      0.00     0  00:00      0.00    0.00    0.00
  91441                CONDUIT      0.00     0  00:00      0.00    0.00    0.00
  91441-2              CONDUIT      0.00     0  00:00      0.00    0.00    0.00
  91463                CONDUIT      0.00     0  00:00      0.00    0.00    0.00
  91464                CONDUIT      0.00     0  00:00      0.00    0.00    0.00
  91465                CONDUIT      0.00     0  00:00      0.00    0.00    0.00
  91466                CONDUIT      0.00     0  00:00      0.00    0.00    0.00
  91467                CONDUIT      0.00     0  00:00      0.00    0.00    0.00
  91468                CONDUIT      0.00     0  00:00      0.00    0.00    0.00
  91469                CONDUIT      0.00     0  00:00      0.00    0.00    0.00
  91470                CONDUIT      0.00     0  00:00      0.00    0.00    0.00
  92325                CONDUIT      0.00     0  00:00      0.00    0.00    0.00
  92325-2              CONDUIT      0.00     0  00:00      0.00    0.00    0.00
  92330-2              CONDUIT      0.00     0  00:00      0.00    0.00    0.00
  92332                CONDUIT      0.00     0  00:00      0.00    0.00    0.00
  92333                CONDUIT      0.00     0  00:00      0.00    0.00    0.00
  92346                CONDUIT      0.00     0  00:00      0.00    0.00    0.00
  92347                CONDUIT      0.00     0  00:00      0.00    0.00    0.00
  92348                CONDUIT      0.00     0  00:00      0.00    0.00    0.00
  92430                CONDUIT      0.00     0  00:00      0.00    0.00    0.00
  92431                CONDUIT      0.00     0  00:00      0.00    0.00    0.00
  92436                CONDUIT      0.00     0  00:00      0.00    0.00    0.00
  92437                CONDUIT      0.00     0  00:00      0.00    0.00    0.00
  92438                CONDUIT      0.00     0  00:00      0.00    0.00    0.00
  92439                CONDUIT      0.00     0  00:00      0.00    0.00    0.00
  92440                CONDUIT      0.00     0  00:00      0.00    0.00    0.00
  92522                CONDUIT      0.00     0  00:00      0.00    0.00    0.00
  92528                CONDUIT      0.00     0  00:00      0.00    0.00    0.00
  92530                CONDUIT      0.00     0  00:00      0.00    0.00    0.00
  92531                CONDUIT      0.00     0  00:00      0.00    0.00    0.00
  92532                CONDUIT      0.00     0  00:00      0.00    0.00    0.00
  92533                CONDUIT      0.00     0  00:00      0.00    0.00    0.00
  95054                CONDUIT      0.00     0  00:00      0.00    0.00    0.00
  95139                CONDUIT      0.00     0  00:00      0.00    0.00    0.00
  95140                CONDUIT      0.00     0  00:00      0.00    0.00    0.00
  95141                CONDUIT      0.00     0  00:00      0.00    0.00    0.00
  95142                CONDUIT      0.00     0  00:00      0.00    0.00    0.00
  95143                CONDUIT      0.00     0  00:00      0.00    0.00    0.00
  95144                CONDUIT      0.00     0  00:00      0.00    0.00    0.00
  95145                CONDUIT      0.00     0  00:00      0.00    0.00    0.00
  95146                CONDUIT      0.00     0  00:00      0.00    0.00    0.00
  95149                CONDUIT      0.00     0  00:00      0.00    0.00    0.00
  9517-3               CONDUIT      0.00     0  00:00      0.00    0.00    0.00
  95172                CONDUIT      0.00     0  00:00      0.00    0.00    0.00
  95172-2              CONDUIT      0.00     0  00:00      0.00    0.00    0.00
  95176                CONDUIT      0.00     0  00:00      0.00    0.00    0.00
  95207                CONDUIT      0.00     0  00:00      0.00    0.00    0.00
  95208                CONDUIT      0.00     0  00:00      0.00    0.00    0.00
  95247                CONDUIT      0.00     0  00:00      0.00    0.00    0.00
  95248                CONDUIT      0.00     0  00:00      0.00    0.00    0.00
  95249                CONDUIT      0.00     0  00:00      0.00    0.00    0.00
  95268                CONDUIT      0.00     0  00:00      0.00    0.00    0.00
  95305                CONDUIT      0.00     0  00:00      0.00    0.00    0.00
  95306                CONDUIT      0.00     0  00:00      0.00    0.00    0.00
  95307                CONDUIT      0.00     0  00:00      0.00    0.00    0.00
  95308                CONDUIT      0.00     0  00:00      0.00    0.00    0.00
  95308-2              CONDUIT      0.00     0  00:00      0.00    0.00    0.00
  95341                CONDUIT      0.00     0  00:00      0.00    0.00    0.00
  95342                CONDUIT      0.00     0  00:00      0.00    0.00    0.00
  95356                CONDUIT      0.00     0  00:00      0.00    0.00    0.00
  95357                CONDUIT      0.00     0  00:00      0.00    0.00    0.00
  95358                CONDUIT      0.00     0  00:00      0.00    0.00    0.00
  95904                CONDUIT      0.00     0  00:00      0.00    0.00    0.00
  96200                CONDUIT      0.00     0  00:00      0.00    0.00    0.00
  96200_2              CONDUIT      0.00     0  00:00      0.00    0.00    0.00
  96286                CONDUIT      0.00     0  00:00      0.00    0.00    0.00
  96287                CONDUIT      0.00     0  00:00      0.00    0.00    0.00
  96557                CONDUIT      0.00     0  00:00      0.00    0.00    0.00
  96558                CONDUIT      0.00     0  00:00      0.00    0.00    0.00
  96559                CONDUIT      0.00     0  00:00      0.00    0.00    0.00
  96560                CONDUIT      0.00     0  00:00      0.00    0.00    0.00
  96968                CONDUIT      0.00     0  00:00      0.00    0.00    0.00
  96968-2              CONDUIT      0.00     0  00:00      0.00    0.00    0.00
  97029                CONDUIT      0.00     0  00:00      0.00    0.00    0.00
  97030                CONDUIT      0.00     0  00:00      0.00    0.00    0.00
  97110                CONDUIT      0.00     0  00:00      0.00    0.00    0.00
  97121                CONDUIT      0.00     0  00:00      0.00    0.00    0.00
  97122                CONDUIT      0.00     0  00:00      0.00    0.00    0.00
  97123                CONDUIT      0.00     0  00:00      0.00    0.00    0.00
  97136                CONDUIT      0.00     0  00:00      0.00    0.00    0.00
  97137                CONDUIT      0.00     0  00:00      0.00    0.00    0.00
  97138                CONDUIT      0.00     0  00:00      0.00    0.00    0.00
  97139                CONDUIT      0.00     0  00:00      0.00    0.00    0.00
  97158                CONDUIT      0.00     0  00:00      0.00    0.00    0.00
  97159                CONDUIT      0.00     0  00:00      0.00    0.00    0.00
  97160                CONDUIT      0.00     0  00:00      0.00    0.00    0.00
  97161                CONDUIT      0.00     0  00:00      0.00    0.00    0.00
  97162                CONDUIT      0.00     0  00:00      0.00    0.00    0.00
  97163                CONDUIT      0.00     0  00:00      0.00    0.00    0.00
  97164                CONDUIT      0.00     0  00:00      0.00    0.00    0.00
  97164-2              CONDUIT      0.00     0  00:00      0.00    0.00    0.00
  97164-3              CONDUIT      0.00     0  00:00      0.00    0.00    0.00
  97165                CONDUIT      0.00     0  00:00      0.00    0.00    0.00
  97165-2              CONDUIT      0.00     0  00:00      0.00    0.00    0.00
  97166                CONDUIT      0.00     0  00:00      0.00    0.00    0.00
  97167                CONDUIT      0.00     0  00:00      0.00    0.00    0.00
  97167-2              CONDUIT      0.00     0  00:00      0.00    0.00    0.00
  97168                CONDUIT      0.00     0  00:00      0.00    0.00    0.00
  97169                CONDUIT      0.00     0  00:00      0.00    0.00    0.00
  97175                CONDUIT      0.00     0  00:00      0.00    0.00    0.00
  97176                CONDUIT      0.00     0  00:00      0.00    0.00    0.00
  97177                CONDUIT      0.00     0  00:00      0.00    0.00    0.00
  97177-97178          CONDUIT      0.00     0  00:00      0.00    0.00    0.00
  97178                CONDUIT      0.00     0  00:00      0.00    0.00    0.00
  97179                CONDUIT      0.00     0  00:00      0.00    0.00    0.00
  97180                CONDUIT      0.00     0  00:00      0.00    0.00    0.00
  97183                CONDUIT      0.00     0  00:00      0.00    0.00    0.00
  97196                CONDUIT      0.00     0  00:00      0.00    0.00    0.00
  97197                CONDUIT      0.00     0  00:00      0.00    0.00    0.00
  97198                CONDUIT      0.00     0  00:00      0.00    0.00    0.00
  97274                CONDUIT      0.00     0  00:00      0.00    0.00    0.00
  97275                CONDUIT      0.00     0  00:00      0.00    0.00    0.00
  97276                CONDUIT      0.00     0  00:00      0.00    0.00    0.00
  97277                CONDUIT      0.00     0  00:00      0.00    0.00    0.00
  97279                CONDUIT      0.00     0  00:00      0.00    0.00    0.00
  97280                CONDUIT      0.00     0  00:00      0.00    0.00    0.00
  97281                CONDUIT      0.00     0  00:00      0.00    0.00    0.00
  97321                CONDUIT      0.00     0  00:00      0.00    0.00    0.00
  97322                CONDUIT      0.00     0  00:00      0.00    0.00    0.00
  97323                CONDUIT      0.00     0  00:00      0.00    0.00    0.00
  97324                CONDUIT      0.00     0  00:00      0.00    0.00    0.00
  97325                CONDUIT      0.00     0  00:00      0.00    0.00    0.00
  97327                CONDUIT      0.00     0  00:00      0.00    0.00    0.00
  97328                CONDUIT      0.00     0  00:00      0.00    0.00    0.00
  97328-2              CONDUIT      0.00     0  00:00      0.00    0.00    0.00
  97331                CONDUIT      0.00     0  00:00      0.00    0.00    0.00
  97332                CONDUIT      0.00     0  00:00      0.00    0.00    0.00
  97334                CONDUIT      0.00     0  00:00      0.00    0.00    0.00
  97335                CONDUIT      0.00     0  00:00      0.00    0.00    0.00
  97336                CONDUIT      0.00     0  00:00      0.00    0.00    0.00
  97347                CONDUIT      0.00     0  00:00      0.00    0.00    0.00
  97388                CONDUIT      0.00     0  00:00      0.00    0.00    0.00
  97389                CONDUIT      0.00     0  00:00      0.00    0.00    0.00
  97390                CONDUIT      0.00     0  00:00      0.00    0.00    0.00
  97424                CONDUIT      0.00     0  00:00      0.00    0.00    0.00
  97425                CONDUIT      0.00     0  00:00      0.00    0.00    0.00
  97426                CONDUIT      0.00     0  00:00      0.00    0.00    0.00
  97430                CONDUIT      0.00     0  00:00      0.00    0.00    0.00
  97430-2              CONDUIT      0.00     0  00:00      0.00    0.00    0.00
  97430-3              CONDUIT      0.00     0  00:00      0.00    0.00    0.00
  97431                CONDUIT      0.00     0  00:00      0.00    0.00    0.00
  97431-2              CONDUIT      0.00     0  00:00      0.00    0.00    0.00
  97432                CONDUIT      0.00     0  00:00      0.00    0.00    0.00
  97436                CONDUIT      0.00     0  00:00      0.00    0.00    0.00
  97710                CONDUIT      0.00     0  00:00      0.00    0.00    0.00
  97717                CONDUIT      0.00     0  00:00      0.00    0.00    0.00
  97728                CONDUIT      0.00     0  00:00      0.00    0.00    0.00
  97732                CONDUIT      0.00     0  00:00      0.00    0.00    0.00
  97733                CONDUIT      0.00     0  00:00      0.00    0.00    0.00
  97734                CONDUIT      0.00     0  00:00      0.00    0.00    0.00
  97735                CONDUIT      0.00     0  00:00      0.00    0.00    0.00
  97736                CONDUIT      0.00     0  00:00      0.00    0.00    0.00
  97737                CONDUIT      0.00     0  00:00      0.00    0.00    0.00
  98855                CONDUIT      0.00     0  00:00      0.00    0.00    0.00
  98856                CONDUIT      0.00     0  00:00      0.00    0.00    0.00
  98857                CONDUIT      0.00     0  00:00      0.00    0.00    0.00
  99207                CONDUIT      0.00     0  00:00      0.00    0.00    0.00
  99208                CONDUIT      0.00     0  00:00      0.00    0.00    0.00
  99210                CONDUIT      0.00     0  00:00      0.00    0.00    0.00
  99211                CONDUIT      0.00     0  00:00      0.00    0.00    0.00
  99498                CONDUIT      0.00     0  00:00      0.00    0.00    0.00
  99498-2              CONDUIT      0.00     0  00:00      0.00    0.00    0.00
  OUTFALL-PIPE-2       CONDUIT      0.00     0  00:00      0.00    0.00    0.00
  RM-100-01            CONDUIT      0.00     0  00:00      0.00    0.00    0.00
  RM-100-02            CONDUIT      0.00     0  00:00      0.00    0.00    0.00
  RM-100-03            CONDUIT      0.00     0  00:00      0.00    0.00    0.00
  RM-100-04            CONDUIT      0.00     0  00:00      0.00    0.00    0.00
  SELFS-PT-DUMMY-EFFLUENT-MAIN CONDUIT      0.00     0  00:00      0.00    0.00    0.00
  BB-PS-1              PUMP         0.00     0  00:00              0.00
  BB-PS-2              PUMP         0.00     0  00:00              0.00
  BB-PS-3              PUMP         0.00     0  00:00              0.00
  SB-PS1-1             PUMP         0.00     0  00:00              0.00
  SB-PS1-2             PUMP         0.00     0  00:00              0.00
  SB-PS2-1             PUMP         0.00     0  00:00              0.00
  SB-PS2-2             PUMP         0.00     0  00:00              0.00
  SELFS-PT-EFFLUENT-PS-1 PUMP         0.00     0  00:00              0.00
  SELFS-PT-EFFLUENT-PS-2 PUMP         0.00     0  00:00              0.00
  SELFS-PT-EFFLUENT-PS-3 PUMP         0.00     0  00:00              0.00
  92330_2              ORIFICE      0.00     0  00:00                      0.00
  92331_2              ORIFICE      0.00     0  00:00                      0.00
  ORI-11               ORIFICE      0.00     0  00:00                          
  
  
  ***************************
  Flow Classification Summary
  ***************************
  
  -------------------------------------------------------------------------------------
                      Adjusted    ---------- Fraction of Time in Flow Class ---------- 
                       /Actual         Up    Down  Sub   Sup   Up    Down  Norm  Inlet 
  Conduit               Length    Dry  Dry   Dry   Crit  Crit  Crit  Crit  Ltd   Ctrl  
  -------------------------------------------------------------------------------------
  87772                   1.00   -nan(ind)  -nan(ind)  -nan(ind)  -nan(ind)  -nan(ind)  -nan(ind)  -nan(ind)  -nan(ind)  -nan(ind)
  87783                   1.00   -nan(ind)  -nan(ind)  -nan(ind)  -nan(ind)  -nan(ind)  -nan(ind)  -nan(ind)  -nan(ind)  -nan(ind)
  87783_2                 1.00   -nan(ind)  -nan(ind)  -nan(ind)  -nan(ind)  -nan(ind)  -nan(ind)  -nan(ind)  -nan(ind)  -nan(ind)
  87784                   1.00   -nan(ind)  -nan(ind)  -nan(ind)  -nan(ind)  -nan(ind)  -nan(ind)  -nan(ind)  -nan(ind)  -nan(ind)
[...]
  92533                   1.00   -nan(ind)  -nan(ind)  -nan(ind)  -nan(ind)  -nan(ind)  -nan(ind)  -nan(ind)  -nan(ind)  -nan(ind)
  95054                   5.49   -nan(ind)  -nan(ind)  -nan(ind)  -nan(ind)  -nan(ind)  -nan(ind)  -nan(ind)  -nan(ind)  -nan(ind)
  95139                   1.00   -nan(ind)  -nan(ind)  -nan(ind)  -nan(ind)  -nan(ind)  -nan(ind)  -nan(ind)  -nan(ind)  -nan(ind)
  95140                   1.00   -nan(ind)  -nan(ind)  -nan(ind)  -nan(ind)  -nan(ind)  -nan(ind)  -nan(ind)  -nan(ind)  -nan(ind)
  95141                   1.00   -nan(ind)  -nan(ind)  -nan(ind)  -nan(ind)  -nan(ind)  -nan(ind)  -nan(ind)  -nan(ind)  -nan(ind)
  95142                   1.00   -nan(ind)  -nan(ind)  -nan(ind)  -nan(ind)  -nan(ind)  -nan(ind)  -nan(ind)  -nan(ind)  -nan(ind)
  95143                   1.00   -nan(ind)  -nan(ind)  -nan(ind)  -nan(ind)  -nan(ind)  -nan(ind)  -nan(ind)  -nan(ind)  -nan(ind)
  95144                   1.00   -nan(ind)  -nan(ind)  -nan(ind)  -nan(ind)  -nan(ind)  -nan(ind)  -nan(ind)  -nan(ind)  -nan(ind)
  95145                   1.00   -nan(ind)  -nan(ind)  -nan(ind)  -nan(ind)  -nan(ind)  -nan(ind)  -nan(ind)  -nan(ind)  -nan(ind)
  95146                   1.00   -nan(ind)  -nan(ind)  -nan(ind)  -nan(ind)  -nan(ind)  -nan(ind)  -nan(ind)  -nan(ind)  -nan(ind)
  95149                   1.00   -nan(ind)  -nan(ind)  -nan(ind)  -nan(ind)  -nan(ind)  -nan(ind)  -nan(ind)  -nan(ind)  -nan(ind)
  9517-3                  1.00   -nan(ind)  -nan(ind)  -nan(ind)  -nan(ind)  -nan(ind)  -nan(ind)  -nan(ind)  -nan(ind)  -nan(ind)
  95172                   1.00   -nan(ind)  -nan(ind)  -nan(ind)  -nan(ind)  -nan(ind)  -nan(ind)  -nan(ind)  -nan(ind)  -nan(ind)
  95172-2                 1.12   -nan(ind)  -nan(ind)  -nan(ind)  -nan(ind)  -nan(ind)  -nan(ind)  -nan(ind)  -nan(ind)  -nan(ind)
  95176                   1.00   -nan(ind)  -nan(ind)  -nan(ind)  -nan(ind)  -nan(ind)  -nan(ind)  -nan(ind)  -nan(ind)  -nan(ind)
  95207                   1.00   -nan(ind)  -nan(ind)  -nan(ind)  -nan(ind)  -nan(ind)  -nan(ind)  -nan(ind)  -nan(ind)  -nan(ind)
  95208                   1.00   -nan(ind)  -nan(ind)  -nan(ind)  -nan(ind)  -nan(ind)  -nan(ind)  -nan(ind)  -nan(ind)  -nan(ind)
  95247                   1.00   -nan(ind)  -nan(ind)  -nan(ind)  -nan(ind)  -nan(ind)  -nan(ind)  -nan(ind)  -nan(ind)  -nan(ind)
  95248                   1.00   -nan(ind)  -nan(ind)  -nan(ind)  -nan(ind)  -nan(ind)  -nan(ind)  -nan(ind)  -nan(ind)  -nan(ind)
  95249                   1.00   -nan(ind)  -nan(ind)  -nan(ind)  -nan(ind)  -nan(ind)  -nan(ind)  -nan(ind)  -nan(ind)  -nan(ind)
  95268                   1.00   -nan(ind)  -nan(ind)  -nan(ind)  -nan(ind)  -nan(ind)  -nan(ind)  -nan(ind)  -nan(ind)  -nan(ind)
  95305                   1.00   -nan(ind)  -nan(ind)  -nan(ind)  -nan(ind)  -nan(ind)  -nan(ind)  -nan(ind)  -nan(ind)  -nan(ind)
  95306                   1.00   -nan(ind)  -nan(ind)  -nan(ind)  -nan(ind)  -nan(ind)  -nan(ind)  -nan(ind)  -nan(ind)  -nan(ind)
  95307                   1.00   -nan(ind)  -nan(ind)  -nan(ind)  -nan(ind)  -nan(ind)  -nan(ind)  -nan(ind)  -nan(ind)  -nan(ind)
  95308                   1.00   -nan(ind)  -nan(ind)  -nan(ind)  -nan(ind)  -nan(ind)  -nan(ind)  -nan(ind)  -nan(ind)  -nan(ind)
  95308-2                 1.00   -nan(ind)  -nan(ind)  -nan(ind)  -nan(ind)  -nan(ind)  -nan(ind)  -nan(ind)  -nan(ind)  -nan(ind)
  95341                   1.00   -nan(ind)  -nan(ind)  -nan(ind)  -nan(ind)  -nan(ind)  -nan(ind)  -nan(ind)  -nan(ind)  -nan(ind)
  95342                   1.00   -nan(ind)  -nan(ind)  -nan(ind)  -nan(ind)  -nan(ind)  -nan(ind)  -nan(ind)  -nan(ind)  -nan(ind)
  95356                   1.00   -nan(ind)  -nan(ind)  -nan(ind)  -nan(ind)  -nan(ind)  -nan(ind)  -nan(ind)  -nan(ind)  -nan(ind)
  95357                   1.00   -nan(ind)  -nan(ind)  -nan(ind)  -nan(ind)  -nan(ind)  -nan(ind)  -nan(ind)  -nan(ind)  -nan(ind)
  95358                   1.00   -nan(ind)  -nan(ind)  -nan(ind)  -nan(ind)  -nan(ind)  -nan(ind)  -nan(ind)  -nan(ind)  -nan(ind)
  95904                   1.00   -nan(ind)  -nan(ind)  -nan(ind)  -nan(ind)  -nan(ind)  -nan(ind)  -nan(ind)  -nan(ind)  -nan(ind)
  96200                   1.00   -nan(ind)  -nan(ind)  -nan(ind)  -nan(ind)  -nan(ind)  -nan(ind)  -nan(ind)  -nan(ind)  -nan(ind)
  96200_2                 1.00   -nan(ind)  -nan(ind)  -nan(ind)  -nan(ind)  -nan(ind)  -nan(ind)  -nan(ind)  -nan(ind)  -nan(ind)
  96286                   1.00   -nan(ind)  -nan(ind)  -nan(ind)  -nan(ind)  -nan(ind)  -nan(ind)  -nan(ind)  -nan(ind)  -nan(ind)
  96287                   1.00   -nan(ind)  -nan(ind)  -nan(ind)  -nan(ind)  -nan(ind)  -nan(ind)  -nan(ind)  -nan(ind)  -nan(ind)
  96557                   1.00   -nan(ind)  -nan(ind)  -nan(ind)  -nan(ind)  -nan(ind)  -nan(ind)  -nan(ind)  -nan(ind)  -nan(ind)
  96558                   1.00   -nan(ind)  -nan(ind)  -nan(ind)  -nan(ind)  -nan(ind)  -nan(ind)  -nan(ind)  -nan(ind)  -nan(ind)
  96559                   1.00   -nan(ind)  -nan(ind)  -nan(ind)  -nan(ind)  -nan(ind)  -nan(ind)  -nan(ind)  -nan(ind)  -nan(ind)
  96560                   1.00   -nan(ind)  -nan(ind)  -nan(ind)  -nan(ind)  -nan(ind)  -nan(ind)  -nan(ind)  -nan(ind)  -nan(ind)
  96968                   1.00   -nan(ind)  -nan(ind)  -nan(ind)  -nan(ind)  -nan(ind)  -nan(ind)  -nan(ind)  -nan(ind)  -nan(ind)
  96968-2                 1.84   -nan(ind)  -nan(ind)  -nan(ind)  -nan(ind)  -nan(ind)  -nan(ind)  -nan(ind)  -nan(ind)  -nan(ind)
  97029                   1.00   -nan(ind)  -nan(ind)  -nan(ind)  -nan(ind)  -nan(ind)  -nan(ind)  -nan(ind)  -nan(ind)  -nan(ind)
  97030                   1.00   -nan(ind)  -nan(ind)  -nan(ind)  -nan(ind)  -nan(ind)  -nan(ind)  -nan(ind)  -nan(ind)  -nan(ind)
  97110                   1.00   -nan(ind)  -nan(ind)  -nan(ind)  -nan(ind)  -nan(ind)  -nan(ind)  -nan(ind)  -nan(ind)  -nan(ind)
  97121                   1.00   -nan(ind)  -nan(ind)  -nan(ind)  -nan(ind)  -nan(ind)  -nan(ind)  -nan(ind)  -nan(ind)  -nan(ind)
  97122                   1.00   -nan(ind)  -nan(ind)  -nan(ind)  -nan(ind)  -nan(ind)  -nan(ind)  -nan(ind)  -nan(ind)  -nan(ind)
  97123                   1.00   -nan(ind)  -nan(ind)  -nan(ind)  -nan(ind)  -nan(ind)  -nan(ind)  -nan(ind)  -nan(ind)  -nan(ind)
  97136                   1.00   -nan(ind)  -nan(ind)  -nan(ind)  -nan(ind)  -nan(ind)  -nan(ind)  -nan(ind)  -nan(ind)  -nan(ind)
  97137                   1.00   -nan(ind)  -nan(ind)  -nan(ind)  -nan(ind)  -nan(ind)  -nan(ind)  -nan(ind)  -nan(ind)  -nan(ind)
  97138                   1.00   -nan(ind)  -nan(ind)  -nan(ind)  -nan(ind)  -nan(ind)  -nan(ind)  -nan(ind)  -nan(ind)  -nan(ind)
  97139                   1.00   -nan(ind)  -nan(ind)  -nan(ind)  -nan(ind)  -nan(ind)  -nan(ind)  -nan(ind)  -nan(ind)  -nan(ind)
  97158                   1.00   -nan(ind)  -nan(ind)  -nan(ind)  -nan(ind)  -nan(ind)  -nan(ind)  -nan(ind)  -nan(ind)  -nan(ind)
  97159                   1.00   -nan(ind)  -nan(ind)  -nan(ind)  -nan(ind)  -nan(ind)  -nan(ind)  -nan(ind)  -nan(ind)  -nan(ind)
  97160                   1.00   -nan(ind)  -nan(ind)  -nan(ind)  -nan(ind)  -nan(ind)  -nan(ind)  -nan(ind)  -nan(ind)  -nan(ind)
  97161                   1.00   -nan(ind)  -nan(ind)  -nan(ind)  -nan(ind)  -nan(ind)  -nan(ind)  -nan(ind)  -nan(ind)  -nan(ind)
  97162                   1.00   -nan(ind)  -nan(ind)  -nan(ind)  -nan(ind)  -nan(ind)  -nan(ind)  -nan(ind)  -nan(ind)  -nan(ind)
  97163                   1.00   -nan(ind)  -nan(ind)  -nan(ind)  -nan(ind)  -nan(ind)  -nan(ind)  -nan(ind)  -nan(ind)  -nan(ind)
  97164                   1.00   -nan(ind)  -nan(ind)  -nan(ind)  -nan(ind)  -nan(ind)  -nan(ind)  -nan(ind)  -nan(ind)  -nan(ind)
  97164-2                 1.00   -nan(ind)  -nan(ind)  -nan(ind)  -nan(ind)  -nan(ind)  -nan(ind)  -nan(ind)  -nan(ind)  -nan(ind)
  97164-3                 2.62   -nan(ind)  -nan(ind)  -nan(ind)  -nan(ind)  -nan(ind)  -nan(ind)  -nan(ind)  -nan(ind)  -nan(ind)
  97165                   1.00   -nan(ind)  -nan(ind)  -nan(ind)  -nan(ind)  -nan(ind)  -nan(ind)  -nan(ind)  -nan(ind)  -nan(ind)
  97165-2                 2.62   -nan(ind)  -nan(ind)  -nan(ind)  -nan(ind)  -nan(ind)  -nan(ind)  -nan(ind)  -nan(ind)  -nan(ind)
  97166                   1.00   -nan(ind)  -nan(ind)  -nan(ind)  -nan(ind)  -nan(ind)  -nan(ind)  -nan(ind)  -nan(ind)  -nan(ind)
  97167                   1.00   -nan(ind)  -nan(ind)  -nan(ind)  -nan(ind)  -nan(ind)  -nan(ind)  -nan(ind)  -nan(ind)  -nan(ind)
  97167-2                 6.72   -nan(ind)  -nan(ind)  -nan(ind)  -nan(ind)  -nan(ind)  -nan(ind)  -nan(ind)  -nan(ind)  -nan(ind)
  97168                   1.00   -nan(ind)  -nan(ind)  -nan(ind)  -nan(ind)  -nan(ind)  -nan(ind)  -nan(ind)  -nan(ind)  -nan(ind)
  97169                   1.00   -nan(ind)  -nan(ind)  -nan(ind)  -nan(ind)  -nan(ind)  -nan(ind)  -nan(ind)  -nan(ind)  -nan(ind)
  97175                   1.00   -nan(ind)  -nan(ind)  -nan(ind)  -nan(ind)  -nan(ind)  -nan(ind)  -nan(ind)  -nan(ind)  -nan(ind)
  97176                   1.00   -nan(ind)  -nan(ind)  -nan(ind)  -nan(ind)  -nan(ind)  -nan(ind)  -nan(ind)  -nan(ind)  -nan(ind)
  97177                   1.00   -nan(ind)  -nan(ind)  -nan(ind)  -nan(ind)  -nan(ind)  -nan(ind)  -nan(ind)  -nan(ind)  -nan(ind)
  97177-97178             1.00   -nan(ind)  -nan(ind)  -nan(ind)  -nan(ind)  -nan(ind)  -nan(ind)  -nan(ind)  -nan(ind)  -nan(ind)
  97178                   1.00   -nan(ind)  -nan(ind)  -nan(ind)  -nan(ind)  -nan(ind)  -nan(ind)  -nan(ind)  -nan(ind)  -nan(ind)
  97179                   1.00   -nan(ind)  -nan(ind)  -nan(ind)  -nan(ind)  -nan(ind)  -nan(ind)  -nan(ind)  -nan(ind)  -nan(ind)
  97180                   1.00   -nan(ind)  -nan(ind)  -nan(ind)  -nan(ind)  -nan(ind)  -nan(ind)  -nan(ind)  -nan(ind)  -nan(ind)
  97183                   1.00   -nan(ind)  -nan(ind)  -nan(ind)  -nan(ind)  -nan(ind)  -nan(ind)  -nan(ind)  -nan(ind)  -nan(ind)
  97196                   1.00   -nan(ind)  -nan(ind)  -nan(ind)  -nan(ind)  -nan(ind)  -nan(ind)  -nan(ind)  -nan(ind)  -nan(ind)
  97197                   1.00   -nan(ind)  -nan(ind)  -nan(ind)  -nan(ind)  -nan(ind)  -nan(ind)  -nan(ind)  -nan(ind)  -nan(ind)
  97198                   1.00   -nan(ind)  -nan(ind)  -nan(ind)  -nan(ind)  -nan(ind)  -nan(ind)  -nan(ind)  -nan(ind)  -nan(ind)
  97274                   1.00   -nan(ind)  -nan(ind)  -nan(ind)  -nan(ind)  -nan(ind)  -nan(ind)  -nan(ind)  -nan(ind)  -nan(ind)
  97275                   1.00   -nan(ind)  -nan(ind)  -nan(ind)  -nan(ind)  -nan(ind)  -nan(ind)  -nan(ind)  -nan(ind)  -nan(ind)
  97276                   1.00   -nan(ind)  -nan(ind)  -nan(ind)  -nan(ind)  -nan(ind)  -nan(ind)  -nan(ind)  -nan(ind)  -nan(ind)
  97277                   1.00   -nan(ind)  -nan(ind)  -nan(ind)  -nan(ind)  -nan(ind)  -nan(ind)  -nan(ind)  -nan(ind)  -nan(ind)
  97279                   1.00   -nan(ind)  -nan(ind)  -nan(ind)  -nan(ind)  -nan(ind)  -nan(ind)  -nan(ind)  -nan(ind)  -nan(ind)
  97280                   1.00   -nan(ind)  -nan(ind)  -nan(ind)  -nan(ind)  -nan(ind)  -nan(ind)  -nan(ind)  -nan(ind)  -nan(ind)
  97281                   1.00   -nan(ind)  -nan(ind)  -nan(ind)  -nan(ind)  -nan(ind)  -nan(ind)  -nan(ind)  -nan(ind)  -nan(ind)
  97321                   1.00   -nan(ind)  -nan(ind)  -nan(ind)  -nan(ind)  -nan(ind)  -nan(ind)  -nan(ind)  -nan(ind)  -nan(ind)
  97322                   1.00   -nan(ind)  -nan(ind)  -nan(ind)  -nan(ind)  -nan(ind)  -nan(ind)  -nan(ind)  -nan(ind)  -nan(ind)
  97323                   1.00   -nan(ind)  -nan(ind)  -nan(ind)  -nan(ind)  -nan(ind)  -nan(ind)  -nan(ind)  -nan(ind)  -nan(ind)
  97324                   1.00   -nan(ind)  -nan(ind)  -nan(ind)  -nan(ind)  -nan(ind)  -nan(ind)  -nan(ind)  -nan(ind)  -nan(ind)
  97325                   1.00   -nan(ind)  -nan(ind)  -nan(ind)  -nan(ind)  -nan(ind)  -nan(ind)  -nan(ind)  -nan(ind)  -nan(ind)
  97327                   1.00   -nan(ind)  -nan(ind)  -nan(ind)  -nan(ind)  -nan(ind)  -nan(ind)  -nan(ind)  -nan(ind)  -nan(ind)
  97328                   1.00   -nan(ind)  -nan(ind)  -nan(ind)  -nan(ind)  -nan(ind)  -nan(ind)  -nan(ind)  -nan(ind)  -nan(ind)
  97328-2                 1.00   -nan(ind)  -nan(ind)  -nan(ind)  -nan(ind)  -nan(ind)  -nan(ind)  -nan(ind)  -nan(ind)  -nan(ind)
  97331                   1.00   -nan(ind)  -nan(ind)  -nan(ind)  -nan(ind)  -nan(ind)  -nan(ind)  -nan(ind)  -nan(ind)  -nan(ind)
  97332                   1.00   -nan(ind)  -nan(ind)  -nan(ind)  -nan(ind)  -nan(ind)  -nan(ind)  -nan(ind)  -nan(ind)  -nan(ind)
  97334                   3.49   -nan(ind)  -nan(ind)  -nan(ind)  -nan(ind)  -nan(ind)  -nan(ind)  -nan(ind)  -nan(ind)  -nan(ind)
  97335                   3.70   -nan(ind)  -nan(ind)  -nan(ind)  -nan(ind)  -nan(ind)  -nan(ind)  -nan(ind)  -nan(ind)  -nan(ind)
  97336                   3.09   -nan(ind)  -nan(ind)  -nan(ind)  -nan(ind)  -nan(ind)  -nan(ind)  -nan(ind)  -nan(ind)  -nan(ind)
  97347                   1.00   -nan(ind)  -nan(ind)  -nan(ind)  -nan(ind)  -nan(ind)  -nan(ind)  -nan(ind)  -nan(ind)  -nan(ind)
  97388                   1.00   -nan(ind)  -nan(ind)  -nan(ind)  -nan(ind)  -nan(ind)  -nan(ind)  -nan(ind)  -nan(ind)  -nan(ind)
  97389                   1.00   -nan(ind)  -nan(ind)  -nan(ind)  -nan(ind)  -nan(ind)  -nan(ind)  -nan(ind)  -nan(ind)  -nan(ind)
  97390                   1.00   -nan(ind)  -nan(ind)  -nan(ind)  -nan(ind)  -nan(ind)  -nan(ind)  -nan(ind)  -nan(ind)  -nan(ind)
  97424                   1.00   -nan(ind)  -nan(ind)  -nan(ind)  -nan(ind)  -nan(ind)  -nan(ind)  -nan(ind)  -nan(ind)  -nan(ind)
  97425                   1.00   -nan(ind)  -nan(ind)  -nan(ind)  -nan(ind)  -nan(ind)  -nan(ind)  -nan(ind)  -nan(ind)  -nan(ind)
  97426                   1.00   -nan(ind)  -nan(ind)  -nan(ind)  -nan(ind)  -nan(ind)  -nan(ind)  -nan(ind)  -nan(ind)  -nan(ind)
  97430                   1.00   -nan(ind)  -nan(ind)  -nan(ind)  -nan(ind)  -nan(ind)  -nan(ind)  -nan(ind)  -nan(ind)  -nan(ind)
  97430-2                 1.00   -nan(ind)  -nan(ind)  -nan(ind)  -nan(ind)  -nan(ind)  -nan(ind)  -nan(ind)  -nan(ind)  -nan(ind)
  97430-3                 1.24   -nan(ind)  -nan(ind)  -nan(ind)  -nan(ind)  -nan(ind)  -nan(ind)  -nan(ind)  -nan(ind)  -nan(ind)
  97431                   1.00   -nan(ind)  -nan(ind)  -nan(ind)  -nan(ind)  -nan(ind)  -nan(ind)  -nan(ind)  -nan(ind)  -nan(ind)
  97431-2                 6.95   -nan(ind)  -nan(ind)  -nan(ind)  -nan(ind)  -nan(ind)  -nan(ind)  -nan(ind)  -nan(ind)  -nan(ind)
  97432                   1.00   -nan(ind)  -nan(ind)  -nan(ind)  -nan(ind)  -nan(ind)  -nan(ind)  -nan(ind)  -nan(ind)  -nan(ind)
  97436                   1.00   -nan(ind)  -nan(ind)  -nan(ind)  -nan(ind)  -nan(ind)  -nan(ind)  -nan(ind)  -nan(ind)  -nan(ind)
  97710                   1.00   -nan(ind)  -nan(ind)  -nan(ind)  -nan(ind)  -nan(ind)  -nan(ind)  -nan(ind)  -nan(ind)  -nan(ind)
  97717                   1.00   -nan(ind)  -nan(ind)  -nan(ind)  -nan(ind)  -nan(ind)  -nan(ind)  -nan(ind)  -nan(ind)  -nan(ind)
  97728                   1.00   -nan(ind)  -nan(ind)  -nan(ind)  -nan(ind)  -nan(ind)  -nan(ind)  -nan(ind)  -nan(ind)  -nan(ind)
  97732                   1.00   -nan(ind)  -nan(ind)  -nan(ind)  -nan(ind)  -nan(ind)  -nan(ind)  -nan(ind)  -nan(ind)  -nan(ind)
  97733                   1.00   -nan(ind)  -nan(ind)  -nan(ind)  -nan(ind)  -nan(ind)  -nan(ind)  -nan(ind)  -nan(ind)  -nan(ind)
  97734                   1.00   -nan(ind)  -nan(ind)  -nan(ind)  -nan(ind)  -nan(ind)  -nan(ind)  -nan(ind)  -nan(ind)  -nan(ind)
  97735                   1.00   -nan(ind)  -nan(ind)  -nan(ind)  -nan(ind)  -nan(ind)  -nan(ind)  -nan(ind)  -nan(ind)  -nan(ind)
  97736                   1.00   -nan(ind)  -nan(ind)  -nan(ind)  -nan(ind)  -nan(ind)  -nan(ind)  -nan(ind)  -nan(ind)  -nan(ind)
  97737                   1.00   -nan(ind)  -nan(ind)  -nan(ind)  -nan(ind)  -nan(ind)  -nan(ind)  -nan(ind)  -nan(ind)  -nan(ind)
  98855                   1.00   -nan(ind)  -nan(ind)  -nan(ind)  -nan(ind)  -nan(ind)  -nan(ind)  -nan(ind)  -nan(ind)  -nan(ind)
  98856                   1.00   -nan(ind)  -nan(ind)  -nan(ind)  -nan(ind)  -nan(ind)  -nan(ind)  -nan(ind)  -nan(ind)  -nan(ind)
  98857                   1.00   -nan(ind)  -nan(ind)  -nan(ind)  -nan(ind)  -nan(ind)  -nan(ind)  -nan(ind)  -nan(ind)  -nan(ind)
  99207                   1.00   -nan(ind)  -nan(ind)  -nan(ind)  -nan(ind)  -nan(ind)  -nan(ind)  -nan(ind)  -nan(ind)  -nan(ind)
  99208                   1.00   -nan(ind)  -nan(ind)  -nan(ind)  -nan(ind)  -nan(ind)  -nan(ind)  -nan(ind)  -nan(ind)  -nan(ind)
  99210                   1.00   -nan(ind)  -nan(ind)  -nan(ind)  -nan(ind)  -nan(ind)  -nan(ind)  -nan(ind)  -nan(ind)  -nan(ind)
  99211                   1.00   -nan(ind)  -nan(ind)  -nan(ind)  -nan(ind)  -nan(ind)  -nan(ind)  -nan(ind)  -nan(ind)  -nan(ind)
  99498                   1.00   -nan(ind)  -nan(ind)  -nan(ind)  -nan(ind)  -nan(ind)  -nan(ind)  -nan(ind)  -nan(ind)  -nan(ind)
  99498-2                 7.39   -nan(ind)  -nan(ind)  -nan(ind)  -nan(ind)  -nan(ind)  -nan(ind)  -nan(ind)  -nan(ind)  -nan(ind)
  OUTFALL-PIPE-2          1.00   -nan(ind)  -nan(ind)  -nan(ind)  -nan(ind)  -nan(ind)  -nan(ind)  -nan(ind)  -nan(ind)  -nan(ind)
  RM-100-01               1.00   -nan(ind)  -nan(ind)  -nan(ind)  -nan(ind)  -nan(ind)  -nan(ind)  -nan(ind)  -nan(ind)  -nan(ind)
  RM-100-02               1.00   -nan(ind)  -nan(ind)  -nan(ind)  -nan(ind)  -nan(ind)  -nan(ind)  -nan(ind)  -nan(ind)  -nan(ind)
  RM-100-03               1.00   -nan(ind)  -nan(ind)  -nan(ind)  -nan(ind)  -nan(ind)  -nan(ind)  -nan(ind)  -nan(ind)  -nan(ind)
  RM-100-04               1.00   -nan(ind)  -nan(ind)  -nan(ind)  -nan(ind)  -nan(ind)  -nan(ind)  -nan(ind)  -nan(ind)  -nan(ind)
  SELFS-PT-DUMMY-EFFLUENT-MAIN    1.00   -nan(ind)  -nan(ind)  -nan(ind)  -nan(ind)  -nan(ind)  -nan(ind)  -nan(ind)  -nan(ind)  -nan(ind)
  
  
  *************************
  Conduit Surcharge Summary
  *************************
  
  No conduits were surcharged.
  
  
  ***************
  Pumping Summary
  ***************
  
  ---------------------------------------------------------------------------------------------------------
                                                  Min       Avg       Max     Total     Power    % Time Off
                        Percent   Number of      Flow      Flow      Flow    Volume     Usage    Pump Curve
  Pump                 Utilized   Start-Ups       LPS       LPS       LPS  10^6 ltr     Kw-hr    Low   High
  ---------------------------------------------------------------------------------------------------------
  BB-PS-1              -nan(ind)           0      0.00      0.00      0.00     0.000      0.00    0.0    0.0
  BB-PS-2              -nan(ind)           0      0.00      0.00      0.00     0.000      0.00    0.0    0.0
  BB-PS-3              -nan(ind)           0      0.00      0.00      0.00     0.000      0.00    0.0    0.0
  SB-PS1-1             -nan(ind)           0      0.00      0.00      0.00     0.000      0.00    0.0    0.0
  SB-PS1-2             -nan(ind)           0      0.00      0.00      0.00     0.000      0.00    0.0    0.0
  SB-PS2-1             -nan(ind)           0      0.00      0.00      0.00     0.000      0.00    0.0    0.0
  SB-PS2-2             -nan(ind)           0      0.00      0.00      0.00     0.000      0.00    0.0    0.0
  SELFS-PT-EFFLUENT-PS-1 -nan(ind)           0      0.00      0.00      0.00     0.000      0.00    0.0    0.0
  SELFS-PT-EFFLUENT-PS-2 -nan(ind)           0      0.00      0.00      0.00     0.000      0.00    0.0    0.0
  SELFS-PT-EFFLUENT-PS-3 -nan(ind)           0      0.00      0.00      0.00     0.000      0.00    0.0    0.0
  

  Analysis begun on:  Sat Nov 30 08:11:43 2019
  Analysis ended on:  Sat Nov 30 08:11:43 2019
  Total elapsed time: < 1 sec