
  EPA STORM WATER MANAGEMENT MODEL - VERSION 5.1 (Build 5.1.013)
  --------------------------------------------------------------

  WARNING 04: minimum elevation drop used for Conduit 87783
  WARNING 03: negative offset ignored for Link 88794
  WARNING 04: minimum elevation drop used for Conduit 88794
  WARNING 04: minimum elevation drop used for Conduit 91463
  WARNING 04: minimum elevation drop used for Conduit 92330-2
  WARNING 03: negative offset ignored for Link 92346
  WARNING 04: minimum elevation drop used for Conduit 92522
  WARNING 03: negative offset ignored for Link 95054
  WARNING 04: minimum elevation drop used for Conduit 9517-3
  WARNING 04: minimum elevation drop used for Conduit 95172-2
  WARNING 03: negative offset ignored for Link 95247
  WARNING 03: negative offset ignored for Link 95249
  WARNING 03: negative offset ignored for Link 95307
  WARNING 04: minimum elevation drop used for Conduit 96200
  WARNING 04: minimum elevation drop used for Conduit 96968
  WARNING 03: negative offset ignored for Link 97165
  WARNING 04: minimum elevation drop used for Conduit 97334
  WARNING 04: minimum elevation drop used for Conduit 97430-2
  WARNING 04: minimum elevation drop used for Conduit 97430-3
  WARNING 03: negative offset ignored for Link 99211
  WARNING 04: minimum elevation drop used for Conduit 99498-2
  WARNING 03: negative offset ignored for Link OUTFALL-PIPE-2
  WARNING 03: negative offset ignored for Link OUTFALL-PIPE-2
  WARNING 04: minimum elevation drop used for Conduit RM-100-01
  WARNING 10: crest elevation raised to downstream invert for regulator Link ORI-11
  WARNING 02: maximum depth increased for Node 23240
  WARNING 02: maximum depth increased for Node 26196
  WARNING 02: maximum depth increased for Node RM-JCT-22
  WARNING 02: maximum depth increased for Node RM-JCT-22_A
  WARNING 02: maximum depth increased for Node RM-JCT-370
  WARNING 02: maximum depth increased for Node RM-JCT-82
  
  *********************************************************
  NOTE: The summary statistics displayed in this report are
  based on results found at every computational time step,  
  not just on results from each reporting time step.
  *********************************************************
  
  ****************
  Analysis Options
  ****************
  Flow Units ............... LPS
  Process Models:
    Rainfall/Runoff ........ NO
    RDII ................... NO
    Snowmelt ............... NO
    Groundwater ............ NO
    Flow Routing ........... YES
    Ponding Allowed ........ NO
    Water Quality .......... NO
  Flow Routing Method ...... DYNWAVE
  Surcharge Method ......... EXTRAN
  Starting Date ............ 06/09/2010 00:00:00
  Ending Date .............. 06/10/2010 23:00:00
  Antecedent Dry Days ...... 5.0
  Report Time Step ......... 00:00:01
  Routing Time Step ........ 1.00 sec
  Variable Time Step ....... YES
  Maximum Trials ........... 8
  Number of Threads ........ 8
  Head Tolerance ........... 0.000100 m
  
  
  **************************        Volume        Volume
  Flow Routing Continuity        hectare-m      10^6 ltr
  **************************     ---------     ---------
  Dry Weather Inflow .......         2.602        26.023
  Wet Weather Inflow .......         0.000         0.000
  Groundwater Inflow .......         0.000         0.000
  RDII Inflow ..............         0.000         0.000
  External Inflow ..........         0.000         0.000
  External Outflow .........         2.209        22.089
  Flooding Loss ............         0.000         0.001
  Evaporation Loss .........         0.000         0.000
  Exfiltration Loss ........         0.000         0.000
  Initial Stored Volume ....         0.016         0.164
  Final Stored Volume ......         0.306         3.064
  Continuity Error (%) .....         3.947
  
  
  *************************
  Highest Continuity Errors
  *************************
  Node 24057 (13.21%)
  Node RM-JCT-274 (-2.42%)
  Node RM-JCT-370 (1.51%)
  Node RM-JCT-22_A (1.38%)
  Node RM-JCT-34 (1.32%)
  
  
  ***************************
  Time-Step Critical Elements
  ***************************
  Link 97430-3 (95.26%)
  Link 92330-2 (1.50%)
  
  
  ********************************
  Highest Flow Instability Indexes
  ********************************
  Link 97281 (32)
  Link 96200 (23)
  Link 97183 (19)
  Link 92330_2 (19)
  Link 96200_2 (19)
  
  
  *************************
  Routing Time Step Summary
  *************************
  Minimum Time Step           :     0.04 sec
  Average Time Step           :     0.30 sec
  Maximum Time Step           :     0.87 sec
  Percent in Steady State     :    51.06
  Average Iterations per Step :     3.96
  Percent Not Converging      :   100.00
  
  
  ******************
  Node Depth Summary
  ******************
  
  ---------------------------------------------------------------------------------
                                 Average  Maximum  Maximum  Time of Max    Reported
                                   Depth    Depth      HGL   Occurrence   Max Depth
  Node                 Type       Meters   Meters   Meters  days hr:min      Meters
  ---------------------------------------------------------------------------------
  000.00               JUNCTION     3.24     7.35    15.63     1  07:11        7.34
  000.00-2             JUNCTION     0.01     0.04     8.32     1  09:38        0.04
  179.73               JUNCTION     0.03     0.09    14.59     1  09:07        0.09
  179.73-2             JUNCTION     0.03     0.08    14.58     1  09:38        0.08
  18034                JUNCTION     3.53    13.53    39.84     1  22:37       13.39
  18037                JUNCTION     1.99     4.12     6.93     1  10:29        4.12
  18039                JUNCTION     1.21     2.63    32.22     1  10:20        2.63
  18137                JUNCTION     0.03     0.08     0.24     1  09:32        0.08
  18403                JUNCTION     0.06     0.15     0.59     1  10:16        0.15
  18404                JUNCTION     0.06     0.15     0.73     1  10:07        0.15
  18405                JUNCTION     0.06     0.15     0.75     1  10:06        0.15
  18406                JUNCTION     0.06     0.15     0.67     1  10:19        0.15
  19955                JUNCTION     0.06     0.16     2.19     1  09:34        0.16
  19956                JUNCTION     0.07     0.19     2.21     1  09:34        0.19
  19957                JUNCTION     0.05     0.14     2.26     1  09:33        0.14
  19958                JUNCTION     0.06     0.17     2.67     1  09:19        0.17
  19966                JUNCTION     0.00     0.02     2.91     1  09:05        0.02
  19995                JUNCTION     0.06     0.16     2.57     1  09:21        0.16
  19996                JUNCTION     0.06     0.15     2.46     1  09:23        0.15
  20002                JUNCTION     0.06     0.16     2.11     1  09:35        0.16
  20003                JUNCTION     0.06     0.16     2.17     1  09:34        0.16
  20011                JUNCTION     0.06     0.17     2.06     1  09:36        0.17
  20066                JUNCTION     0.06     0.16     2.91     1  09:08        0.16
  20069                JUNCTION     0.06     0.16     2.85     1  09:09        0.16
  20071                JUNCTION     0.00     0.03     2.91     1  09:05        0.03
  20072                JUNCTION     0.00     0.00     2.92     0  00:00        0.00
  20462                JUNCTION     0.03     0.08     6.76     1  10:12        0.08
  20560                JUNCTION     0.03     0.08     5.74     1  10:14        0.08
  20561                JUNCTION     0.05     0.12     5.68     1  10:10        0.12
  20562                JUNCTION     0.03     0.08     5.79     1  10:13        0.08
  22772                JUNCTION     0.03     0.08     8.65     1  10:09        0.08
  22776                JUNCTION     0.03     0.08     7.76     1  10:10        0.08
  22777                JUNCTION     0.03     0.08     7.29     1  10:12        0.08
  23178                JUNCTION     0.06     0.16     1.66     1  09:50        0.16
  23179                JUNCTION     0.06     0.16     1.74     1  09:48        0.16
  23205                JUNCTION     0.33     1.81     1.58     1  09:07        1.81
  23207                JUNCTION     0.06     0.16     1.52     1  09:52        0.16
  23220                JUNCTION     0.05     0.14     0.56     1  10:15        0.14
  23221                JUNCTION     0.05     0.14     0.81     1  10:04        0.14
  23227                JUNCTION     0.05     0.14     1.01     1  09:53        0.14
  23228                JUNCTION     0.05     0.13     0.52     1  10:04        0.13
  23229                JUNCTION     4.47    44.84    46.10     1  22:37       38.58
  23231                JUNCTION     0.06     0.16     1.87     1  09:34        0.16
  23232                JUNCTION     0.00     0.00    -0.12     0  00:00        0.00
  23233                JUNCTION     0.00     0.00    -0.15     0  00:00        0.00
  23237                JUNCTION     0.03     0.08     0.45     1  09:07        0.08
  23238                JUNCTION     0.02     0.06     2.16     1  09:38        0.06
  23239                JUNCTION     0.00     0.00     1.43     0  00:00        0.00
  23240                JUNCTION     0.03     0.10     1.38     1  09:39        0.10
  23448                JUNCTION     0.05     0.14     1.25     1  09:54        0.14
  23449                JUNCTION     0.05     0.14     1.22     1  09:52        0.14
  23451                JUNCTION     0.05     0.13     1.31     1  09:55        0.13
  23457                JUNCTION     0.05     0.13     1.43     1  09:46        0.13
  23518                JUNCTION     0.05     0.14     0.87     1  10:02        0.14
  23554                JUNCTION     0.05     0.14     1.11     1  10:00        0.14
  24053                JUNCTION     0.00     0.00     3.28     0  00:00        0.00
  24054                JUNCTION     0.00     0.00     3.14     0  00:00        0.00
  24056                JUNCTION     0.05     0.11     2.99     1  10:19        0.11
  24057                JUNCTION     0.01     0.04     2.90     1  10:55        0.04
  24058                JUNCTION     0.05     0.12     2.90     1  10:55        0.12
  24059                JUNCTION     0.01     0.02     2.67     1  10:03        0.02
  24060                JUNCTION     0.02     0.05     2.86     1  10:03        0.05
  24061                JUNCTION     0.00     0.00     3.28     0  00:00        0.00
  24062                JUNCTION     0.02     0.05     3.06     1  10:02        0.05
  24063                JUNCTION     0.05     0.12     3.63     1  10:18        0.12
  24064                JUNCTION     0.00     0.00     3.08     0  00:00        0.00
  24069                JUNCTION     0.02     0.05     3.67     1  10:01        0.05
  24073                JUNCTION     0.05     0.12     4.55     1  10:17        0.12
  24103                JUNCTION     0.00     0.00     2.95     0  00:00        0.00
  24104                JUNCTION     0.00     0.00     2.93     0  00:00        0.00
  242.37               JUNCTION     0.04     0.11     4.70     1  09:07        0.11
  242.37-2             JUNCTION     5.14    17.90    22.84     1  08:26       14.05
  25011                JUNCTION     0.03     0.08     7.18     1  10:10        0.08
  25315                JUNCTION     0.02     0.05     5.45     1  09:38        0.05
  25319                JUNCTION     0.03     0.08     0.29     1  10:01        0.08
  25322                JUNCTION     0.03     0.08     0.36     1  09:19        0.08
  25323                JUNCTION     0.03     0.08     0.41     1  09:08        0.08
  25325                JUNCTION     0.03     0.08     0.33     1  09:27        0.08
  25326                JUNCTION     0.03     0.08     0.31     1  09:29        0.08
  25327                JUNCTION     0.03     0.09     0.28     1  10:01        0.09
  26193                JUNCTION     0.07     0.17    16.61     1  10:26        0.17
  26194                JUNCTION     0.06     0.15    22.38     1  10:26        0.15
  26195                JUNCTION     0.05     0.12    25.28     1  10:25        0.12
  26196                JUNCTION     0.05     0.12    27.38     1  10:24        0.12
  26199                JUNCTION     0.08     0.20    14.37     1  10:30        0.20
  26359                JUNCTION     0.03     0.08     9.60     1  10:02        0.08
  27424                JUNCTION     0.05     0.13     3.46     1  10:34        0.13
  27430                JUNCTION     0.05     0.12    31.86     1  10:23        0.12
  27431                JUNCTION     0.05     0.12    29.52     1  10:23        0.12
  27432                JUNCTION     1.97     4.10     6.93     1  10:32        4.10
  27433                JUNCTION     0.05     0.11    10.51     1  10:31        0.11
  27434                JUNCTION     0.05     0.11     8.02     1  10:32        0.11
  27435                JUNCTION     0.77     1.70     7.03     1  10:32        1.70
  27436                JUNCTION     0.05     0.13     6.73     1  10:33        0.13
  27437                JUNCTION     0.05     0.13     5.11     1  10:33        0.13
  27438                JUNCTION     0.55     1.21     2.53     1  10:34        1.21
  GS-JCT-152           JUNCTION     0.06     0.16     2.39     1  09:24        0.16
  GS-JCT-154           JUNCTION     0.02     0.05     2.55     1  10:03        0.05
  GS-JCT-156           JUNCTION     0.06     0.17     2.74     1  09:18        0.17
  GS-JCT-184           JUNCTION     0.05     0.13     0.50     1  10:04        0.13
  GS-JCT-186           JUNCTION     0.01     0.01     7.06     1  09:03        0.01
  GS-JCT-190           JUNCTION     0.03     0.08     0.45     1  09:09        0.08
  GS-JCT-216           JUNCTION     0.06     0.16     1.59     1  09:51        0.16
  GS-JCT-220           JUNCTION     0.06     0.16     1.68     1  09:49        0.16
  GS-JCT-252           JUNCTION     0.01     0.03     2.48     1  10:03        0.03
  GS-JCT-254           JUNCTION     0.06     0.16     1.98     1  09:46        0.16
  GS-JCT-280           JUNCTION     0.03     0.07     2.67     1  10:55        0.07
  GS-JCT-342           JUNCTION     0.00     0.00    -0.10     0  00:00        0.00
  GS-JCT-376           JUNCTION     0.03     0.07     0.22     1  09:32        0.07
  RM-JCT-100           JUNCTION     5.48    16.10    21.42     1  09:06       16.10
  RM-JCT-102           JUNCTION     8.31    21.68    21.24     1  09:06       21.68
  RM-JCT-104           JUNCTION     8.37    21.60    20.98     1  09:06       21.60
  RM-JCT-106           JUNCTION     8.37    21.43    20.74     1  07:11       21.43
  RM-JCT-108           JUNCTION     8.24    21.10    20.61     1  07:11       21.10
  RM-JCT-110           JUNCTION     8.17    20.87    20.48     1  07:11       20.85
  RM-JCT-114           JUNCTION     8.41    21.55    20.80     1  09:06       21.55
  RM-JCT-116           JUNCTION     8.05    20.57    20.38     1  07:11       20.55
  RM-JCT-118           JUNCTION     6.60    17.51    20.20     1  07:11       17.51
  RM-JCT-120           JUNCTION     5.03    14.21    20.01     1  07:11       14.21
  RM-JCT-122           JUNCTION     6.55    17.16    19.81     1  07:11       17.14
  RM-JCT-124           JUNCTION     5.19    14.25    19.58     1  07:11       14.25
  RM-JCT-126           JUNCTION     7.61    18.99    19.34     1  07:11       18.99
  RM-JCT-128           JUNCTION     7.72    19.20    19.30     1  07:11       19.20
  RM-JCT-130           JUNCTION     4.39    12.32    19.05     1  07:11       12.30
  RM-JCT-132           JUNCTION     4.19    11.79    18.84     1  07:11       11.76
  RM-JCT-134           JUNCTION     4.19    11.70    18.70     1  07:11       11.67
  RM-JCT-136           JUNCTION     3.11     9.36    18.45     1  07:11        9.34
  RM-JCT-138           JUNCTION     2.92     8.78    18.17     1  07:11        8.76
  RM-JCT-140           JUNCTION     3.55     9.79    17.84     1  07:11        9.78
  RM-JCT-142           JUNCTION     3.70     9.81    17.46     1  07:11        9.80
  RM-JCT-144           JUNCTION     3.73     9.68    17.23     1  07:11        9.67
  RM-JCT-146           JUNCTION     3.82     9.69    17.03     1  07:11        9.68
  RM-JCT-148           JUNCTION     4.82    11.29    16.52     1  07:11       11.28
  RM-JCT-150           JUNCTION    19.68   174.14   179.19     1  22:37      125.18
  RM-JCT-160           JUNCTION     0.83     2.72     1.42     1  09:07        2.72
  RM-JCT-166           JUNCTION     0.41     1.91     1.46     1  09:21        1.91
  RM-JCT-168           JUNCTION     0.33     1.81     1.58     1  09:07        1.81
  RM-JCT-170           JUNCTION     0.00     0.00    -0.23     0  00:00        0.00
  RM-JCT-172           JUNCTION     0.00     0.00    -0.45     0  00:00        0.00
  RM-JCT-174           JUNCTION     0.00     0.00    -0.45     0  00:00        0.00
  RM-JCT-176           JUNCTION     0.00     0.00    -0.49     0  00:00        0.00
  RM-JCT-18            JUNCTION    10.82    23.80    38.25     1  22:16       23.57
  RM-JCT-192           JUNCTION     0.00     0.00    43.00     1  22:37        0.00
  RM-JCT-198           JUNCTION     0.03     0.08    20.38     1  10:26        0.08
  RM-JCT-20            JUNCTION    11.35    25.05    38.44     1  22:16       24.80
  RM-JCT-202           JUNCTION     0.07     0.17    15.91     1  10:27        0.17
  RM-JCT-204           JUNCTION     0.07     0.17    15.11     1  10:29        0.17
  RM-JCT-208           JUNCTION     0.04     0.11    33.28     1  10:22        0.11
  RM-JCT-210           JUNCTION     0.00     0.00    43.00     1  22:37        0.00
  RM-JCT-22            JUNCTION    21.20   129.47   132.38     1  22:35      124.38
  RM-JCT-226           JUNCTION     0.05     0.11    13.55     1  10:31        0.11
  RM-JCT-228           JUNCTION     9.83    37.02    51.02     1  22:37       36.27
  RM-JCT-22_A          JUNCTION    21.18   129.39   132.29     1  22:35      124.95
  RM-JCT-230           JUNCTION     8.15    32.96    50.21     1  22:37       32.69
  RM-JCT-236           JUNCTION    16.88   101.46   104.11     1  22:35      101.46
  RM-JCT-238           JUNCTION    17.28   101.89   104.00     1  22:35      101.89
  RM-JCT-238_2         JUNCTION    17.16   100.49   102.60     1  22:35      100.49
  RM-JCT-242           JUNCTION     8.70    22.25    39.10     1  22:37       21.82
  RM-JCT-246           JUNCTION     9.86    26.06    40.51     1  22:37       25.40
  RM-JCT-248           JUNCTION    10.37    28.24    41.63     1  22:37       27.37
  RM-JCT-250           JUNCTION    11.11    31.00    42.87     1  22:37       29.86
  RM-JCT-258           JUNCTION     0.06     0.16     7.21     1  10:14        0.16
  RM-JCT-26            JUNCTION     0.03     0.10    43.10     1  09:06        0.10
  RM-JCT-260           JUNCTION     0.03     0.10     6.83     1  10:18        0.10
  RM-JCT-262           JUNCTION     0.08     0.25     9.64     1  10:14        0.25
  RM-JCT-264           JUNCTION     0.04     0.12     9.21     1  10:14        0.12
  RM-JCT-266           JUNCTION     0.14     0.44     7.44     1  10:14        0.44
  RM-JCT-268           JUNCTION     2.76     5.94     6.04     1  10:18        5.93
  RM-JCT-270           JUNCTION     2.41     5.09     5.79     1  10:18        5.09
  RM-JCT-272           JUNCTION     0.04     0.10     5.43     1  10:19        0.10
  RM-JCT-274           JUNCTION     8.76    21.57    19.75     1  07:11       21.57
  RM-JCT-276           JUNCTION    18.29    98.06    97.67     1  22:35       93.98
  RM-JCT-278           JUNCTION    18.40   100.54    99.84     1  22:37       91.24
  RM-JCT-28            JUNCTION     9.57    24.56    42.02     1  22:16       24.19
  RM-JCT-282           JUNCTION    18.34   102.39   101.77     1  22:37       99.70
  RM-JCT-284           JUNCTION    18.42   102.61   101.86     1  22:37       90.26
  RM-JCT-288           JUNCTION     2.90    11.23    39.99     1  22:37       10.91
  RM-JCT-290           JUNCTION     0.03     0.11    36.06     1  22:36        0.11
  RM-JCT-292           JUNCTION     5.37    20.87    44.59     1  22:37       20.57
  RM-JCT-294           JUNCTION     4.41    18.05    43.73     1  22:37       17.88
  RM-JCT-296           JUNCTION    15.36    99.96   105.28     1  22:37       73.85
  RM-JCT-298           JUNCTION    18.23   101.85   101.40     1  22:37       96.27
  RM-JCT-30            JUNCTION    14.36   171.00   185.71     1  22:37      121.45
  RM-JCT-300           JUNCTION    18.30   102.64   102.07     1  22:37      101.96
  RM-JCT-302           JUNCTION     4.95   101.63   127.90     1  22:37       72.93
  RM-JCT-304           JUNCTION     1.57   101.75   134.80     1  22:37       84.71
  RM-JCT-306           JUNCTION    10.16   102.11   117.90     1  22:37       76.03
  RM-JCT-308           JUNCTION    18.20    98.83    98.64     1  22:35       95.10
  RM-JCT-310           JUNCTION    15.30   101.50   107.30     1  22:35       95.54
  RM-JCT-312           JUNCTION     6.47    21.21    42.64     1  22:37       20.40
  RM-JCT-314           JUNCTION     6.12    22.13    44.31     1  22:37       21.45
  RM-JCT-318           JUNCTION    11.75    34.12    44.63     1  22:37       32.67
  RM-JCT-32            JUNCTION    13.32   171.00   186.95     1  22:37      127.90
  RM-JCT-320           JUNCTION    16.04    46.70    48.41     1  22:37       44.94
  RM-JCT-322           JUNCTION    16.28    46.07    47.35     1  22:37       44.30
  RM-JCT-324           JUNCTION    15.40    48.42    51.27     1  22:37       46.88
  RM-JCT-326           JUNCTION    16.59    50.31    50.79     1  22:37       48.66
  RM-JCT-328           JUNCTION    14.21    46.10    51.33     1  22:37       44.77
  RM-JCT-334           JUNCTION     2.40    42.23    47.46     1  22:37       29.35
  RM-JCT-336           JUNCTION     3.15    38.71    42.50     1  22:37       32.88
  RM-JCT-338           JUNCTION     1.29    46.81    54.15     1  22:37       23.40
  RM-JCT-34            JUNCTION    15.43   171.81   185.25     1  22:37      112.95
  RM-JCT-340           JUNCTION     1.16    52.16    59.71     1  22:37       21.19
  RM-JCT-346           JUNCTION     0.16     1.26    44.26     1  09:11        0.99
  RM-JCT-348           JUNCTION     6.22    26.34    47.39     1  22:37       26.09
  RM-JCT-350           JUNCTION     7.97    27.94    45.40     1  22:37       27.70
  RM-JCT-352           JUNCTION     2.81    21.68    49.68     1  22:37       21.44
  RM-JCT-356           JUNCTION     4.47    44.74    46.00     1  22:37       38.53
  RM-JCT-358           JUNCTION     1.07    43.68    51.33     1  22:37       17.86
  RM-JCT-36            JUNCTION    21.11   153.34   156.15     1  22:37      127.57
  RM-JCT-360           JUNCTION     0.88    35.39    43.34     1  22:37       20.92
  RM-JCT-362           JUNCTION     0.81    27.56    35.61     1  22:37       17.45
  RM-JCT-370           JUNCTION     7.97    27.54    45.00     1  22:37       27.30
  RM-JCT-378           JUNCTION     0.07     0.17     2.72     1  10:20        0.17
  RM-JCT-378-3         JUNCTION     0.16     3.12     5.62     1  00:00        3.01
  RM-JCT-38            JUNCTION    19.43   171.53   178.13     1  22:37      124.75
  RM-JCT-380           JUNCTION     0.05     0.14     2.69     1  10:19        0.14
  RM-JCT-384           JUNCTION     3.68    16.36    21.30     1  22:37       15.99
  RM-JCT-386           JUNCTION     4.20    25.44    50.69     1  22:37       25.06
  RM-JCT-388           JUNCTION     4.32    13.80    41.80     1  22:16       13.43
  RM-JCT-390           JUNCTION     7.78    20.89    41.94     1  22:16       20.52
  RM-JCT-392           JUNCTION    11.34   171.37   191.67     1  22:37      120.91
  RM-JCT-394           JUNCTION    12.92   171.48   187.92     1  22:37      127.36
  RM-JCT-40            JUNCTION     9.52   168.84   196.10     1  22:37      126.49
  RM-JCT-42            JUNCTION    11.89   171.00   194.00     1  22:37      143.77
  RM-JCT-44            JUNCTION    12.37   171.00   193.23     1  22:37      149.07
  RM-JCT-48            JUNCTION     7.79   158.03   187.62     1  22:35      135.30
  RM-JCT-50            JUNCTION     8.17   172.97   202.50     1  22:35      131.97
  RM-JCT-52            JUNCTION     5.74   171.20   204.37     1  22:37      128.39
  RM-JCT-54            JUNCTION     8.29   159.11   186.78     1  22:37      119.67
  RM-JCT-56            JUNCTION    10.88   143.56   165.64     1  22:37      102.13
  RM-JCT-58            JUNCTION    13.03   112.84   130.30     1  22:37       81.45
  RM-JCT-60            JUNCTION     9.63    24.47    41.72     1  22:16       24.11
  RM-JCT-64            JUNCTION     5.66    16.33    41.58     1  22:16       15.97
  RM-JCT-66            JUNCTION    11.20    27.16    41.16     1  22:16       26.81
  RM-JCT-68            JUNCTION    15.52    35.59    40.82     1  22:16       35.26
  RM-JCT-70            JUNCTION    16.69    37.84    40.69     1  22:16       37.50
  RM-JCT-72            JUNCTION    17.85    40.02    40.50     1  22:16       39.69
  RM-JCT-74            JUNCTION    17.20    38.11    39.82     1  22:16       37.80
  RM-JCT-76            JUNCTION    17.40    38.28    39.56     1  22:16       37.98
  RM-JCT-78            JUNCTION    12.80    28.48    38.99     1  22:16       28.20
  RM-JCT-80            JUNCTION    12.11    26.79    38.66     1  22:16       26.52
  RM-JCT-82            JUNCTION     9.61    20.92    37.77     1  22:16       20.73
  RM-JCT-86            JUNCTION     7.32    15.86    37.29     1  22:16       15.72
  RM-JCT-88            JUNCTION     5.19    10.93    36.61     1  22:16       10.87
  RM-JCT-90            JUNCTION     3.65     7.60    36.36     1  09:06        7.60
  RM-JCT-92            JUNCTION     0.06     0.18    36.13     1  09:06        0.18
  RM-JCT-94            JUNCTION     0.05     0.13    33.18     1  09:07        0.13
  RM-JCT-96            JUNCTION     0.03     0.10    26.37     1  09:07        0.10
  RM-JCT-98            JUNCTION     0.43     5.77    21.57     1  09:06        5.77
  SELFS-PT-FLOW        JUNCTION     0.67     2.06     1.56     1  09:00        2.06
  OFALL-SANDY-BAY-LONG OUTFALL      0.09     0.28    -0.07     1  09:07        0.28
  OFALL-SANDY-BAY-SHORT OUTFALL      0.00     0.00    -1.30     0  00:00        0.00
  SELF-PT-STP-INLET    OUTFALL      0.06     0.14     2.35     1  10:34        0.14
  BLINKING-BILLY-WET-WELL STORAGE      0.14     0.41    -0.97     1  09:32        0.41
  BOH_1                STORAGE      0.15     0.72    43.72     1  09:06        0.72
  BOH_2                STORAGE      0.00     0.00    43.00     0  00:00        0.00
  EFFLUENT-WET-WELL    STORAGE      0.77     2.26     1.56     1  09:05        2.26
  SB-PS1-WET-WELL      STORAGE      1.10     2.37    -0.17     1  10:13        2.37
  SB-PS2-WET-WELL      STORAGE      0.95     1.97     1.20     1  10:21        1.97
  
  
  *******************
  Node Inflow Summary
  *******************
  
  -------------------------------------------------------------------------------------------------
                                  Maximum  Maximum                  Lateral       Total        Flow
                                  Lateral    Total  Time of Max      Inflow      Inflow     Balance
                                   Inflow   Inflow   Occurrence      Volume      Volume       Error
  Node                 Type           LPS      LPS  days hr:min    10^6 ltr    10^6 ltr     Percent
  -------------------------------------------------------------------------------------------------
  000.00               JUNCTION      0.00   178.19     1  09:07           0        12.7       0.355
  000.00-2             JUNCTION      0.00    12.30     1  09:38           0         1.1       0.301
  179.73               JUNCTION      0.00   178.19     1  09:07           0        12.6       0.018
  179.73-2             JUNCTION      0.00    12.34     1  09:35           0         1.1      -0.211
  18034                JUNCTION      0.00    93.04     1  10:21           0        9.76       0.304
  18037                JUNCTION      0.00    92.94     1  10:32           0        9.62       0.069
  18039                JUNCTION      0.00    93.03     1  10:22           0        9.72       0.286
  18137                JUNCTION      1.75    11.38     1  09:31       0.083         1.1       0.038
  18403                JUNCTION      0.00    33.25     1  10:15           0        3.14       0.063
  18404                JUNCTION      0.00    33.25     1  10:06           0        3.14       0.044
  18405                JUNCTION      0.00    33.25     1  10:04           0        3.15       0.064
  18406                JUNCTION      0.00    33.25     1  10:07           0        3.14       0.080
  19955                JUNCTION      0.00    33.25     1  09:33           0         3.2       0.021
  19956                JUNCTION      0.00    33.25     1  09:33           0         3.2       0.053
  19957                JUNCTION      0.00    33.25     1  09:24           0         3.2       0.070
  19958                JUNCTION      0.00    33.28     1  09:18           0        3.21       0.075
  19966                JUNCTION      0.00     0.13     1  09:04           0    8.75e-05       0.417
  19995                JUNCTION      0.00    33.27     1  09:20           0        3.21       0.088
  19996                JUNCTION      0.00    33.27     1  09:21           0        3.21       0.073
  20002                JUNCTION      0.00    33.25     1  09:34           0        3.19       0.066
  20003                JUNCTION      0.00    33.25     1  09:34           0         3.2       0.035
  20011                JUNCTION      0.00    33.25     1  09:35           0        3.19       0.073
  20066                JUNCTION     33.25    33.60     1  09:07        1.58        3.22       0.074
  20069                JUNCTION      0.00    33.46     1  09:08           0        3.22       0.074
  20071                JUNCTION      0.00     1.12     1  08:03           0     0.00129       0.613
  20072                JUNCTION      0.00     0.00     0  00:00           0           0       0.000 ltr
  20462                JUNCTION      0.00    21.42     1  10:11           0        2.38       0.052
  20560                JUNCTION      0.00    21.42     1  10:14           0        2.38       0.006
  20561                JUNCTION     21.42    42.84     1  10:14        1.17        4.77       0.036
  20562                JUNCTION      0.00    21.42     1  10:13           0        2.38       0.042
  22772                JUNCTION      0.00    21.43     1  10:03           0        2.39       0.068
  22776                JUNCTION      0.00    21.42     1  10:09           0        2.39       0.054
  22777                JUNCTION      0.00    21.42     1  10:10           0        2.39       0.023
  23178                JUNCTION      0.00    33.25     1  09:48           0        3.18       0.050
  23179                JUNCTION      0.00    33.25     1  09:39           0        3.18       0.111
  23205                JUNCTION      0.00   174.26     1  09:07           0        12.6       0.045
  23207                JUNCTION      0.00    33.25     1  09:51           0        3.17       0.076
  23220                JUNCTION      0.00    33.28     1  10:17           0        3.14       0.036
  23221                JUNCTION      0.00    33.25     1  10:02           0        3.15       0.081
  23227                JUNCTION      0.00    33.25     1  10:00           0        3.16       0.151
  23228                JUNCTION      0.00    33.36     1  10:16           0        3.14       0.028
  23229                JUNCTION      0.00    46.48     1  10:13           0        4.35       0.005
  23231                JUNCTION      0.00    33.25     1  09:46           0        3.19       0.136
  23232                JUNCTION      0.00     0.00     0  00:00           0           0       0.000 ltr
  23233                JUNCTION      0.00     0.00     0  00:00           0           0       0.000 ltr
  23237                JUNCTION      0.00     0.60     1  08:00           0     0.00171       4.405
  23238                JUNCTION      0.00    13.53     1  09:38           0        1.22      -0.016
  23239                JUNCTION      0.00     0.00     0  00:00           0           0       0.000 ltr
  23240                JUNCTION      0.00    13.53     1  09:38           0        1.22       0.041
  23448                JUNCTION      0.00    33.25     1  09:55           0        3.17       0.067
  23449                JUNCTION      0.00    33.25     1  09:56           0        3.16       0.078
  23451                JUNCTION      0.00    33.25     1  09:50           0        3.17       0.106
  23457                JUNCTION      0.00    33.25     1  09:52           0        3.17       0.083
  23518                JUNCTION      0.00    33.25     1  09:58           0        3.15       0.134
  23554                JUNCTION      0.00    33.25     1  09:55           0        3.16       0.130
  24053                JUNCTION      0.00     0.00     0  00:00           0           0       0.000 ltr
  24054                JUNCTION      0.00     0.00     0  00:00           0           0       0.000 ltr
  24056                JUNCTION      0.00    42.84     1  10:18           0        4.76       0.022
  24057                JUNCTION      0.00     0.09     1  08:03           0    0.000145      15.225
  24058                JUNCTION      0.00    42.87     1  10:55           0        4.76       0.008
  24059                JUNCTION      0.00     4.44     1  10:03           0       0.495       0.005
  24060                JUNCTION      0.00     4.44     1  10:02           0       0.495       0.017
  24061                JUNCTION      0.00     0.00     0  00:00           0           0       0.000 ltr
  24062                JUNCTION      0.00     4.44     1  10:01           0       0.495       0.026
  24063                JUNCTION      0.00    42.84     1  10:17           0        4.77       0.050
  24064                JUNCTION      0.00     0.00     0  00:00           0           0       0.000 ltr
  24069                JUNCTION      4.44     4.44     1  10:00       0.242       0.495       0.017
  24073                JUNCTION      0.00    42.84     1  10:12           0        4.77       0.065
  24103                JUNCTION      0.00     0.00     0  00:00           0           0       0.000 ltr
  24104                JUNCTION      0.00     0.00     0  00:00           0           0       0.000 ltr
  242.37               JUNCTION      0.00   174.98     1  09:07           0        12.6       0.009
  242.37-2             JUNCTION      0.00    12.34     1  09:35           0         1.1       0.034
  25011                JUNCTION      0.00    21.42     1  10:11           0        2.38       0.019
  25315                JUNCTION      0.00    13.53     1  09:38           0        1.22       0.013
  25319                JUNCTION      0.00     9.63     1  09:28           0       0.928       0.051
  25322                JUNCTION      0.00     9.63     1  09:10           0        0.93       0.110
  25323                JUNCTION      0.00     9.63     1  09:10           0       0.931       0.109
  25325                JUNCTION      0.00     9.63     1  09:18           0       0.929       0.065
  25326                JUNCTION      0.00     9.63     1  09:24           0       0.928       0.058
  25327                JUNCTION      0.00     9.63     1  10:00           0       0.927       0.070
  26193                JUNCTION      0.00    92.99     1  10:26           0        9.67       0.037
  26194                JUNCTION      0.00    93.01     1  10:25           0        9.68       0.050
  26195                JUNCTION      0.00    93.02     1  10:24           0        9.68       0.041
  26196                JUNCTION      0.00    93.02     1  10:24           0        9.68       0.035
  26199                JUNCTION      0.00    92.96     1  10:29           0        9.65       0.081
  26359                JUNCTION     21.42    21.42     1  10:00        1.17        2.39       0.033
  27424                JUNCTION      0.00    92.91     1  10:33           0         9.6       0.025
  27430                JUNCTION      0.00    93.03     1  10:22           0        9.69       0.060
  27431                JUNCTION      0.00    93.03     1  10:23           0        9.69       0.037
  27432                JUNCTION      0.00    92.92     1  10:32           0        9.63       0.091
  27433                JUNCTION      0.00    92.92     1  10:31           0        9.64       0.040
  27434                JUNCTION      0.00    92.92     1  10:32           0        9.64       0.026
  27435                JUNCTION      0.00    92.92     1  10:32           0        9.64       0.142
  27436                JUNCTION      0.00    92.92     1  10:32           0        9.61       0.036
  27437                JUNCTION      0.00    92.91     1  10:33           0         9.6       0.060
  27438                JUNCTION      0.00    92.91     1  10:34           0         9.6       0.170
  GS-JCT-152           JUNCTION      0.00    33.26     1  09:23           0         3.2       0.083
  GS-JCT-154           JUNCTION      0.00     4.44     1  10:03           0       0.495       0.009
  GS-JCT-156           JUNCTION      0.00    33.33     1  09:09           0        3.21       0.087
  GS-JCT-184           JUNCTION      0.00    46.68     1  10:03           0        4.35       0.008
  GS-JCT-186           JUNCTION      1.22     1.22     1  09:00      0.0581       0.119       0.011
  GS-JCT-190           JUNCTION      9.63     9.75     1  09:02       0.457       0.933       0.042
  GS-JCT-216           JUNCTION      0.00    33.25     1  09:50           0        3.18       0.078
  GS-JCT-220           JUNCTION      0.00    33.25     1  09:43           0        3.18       0.047
  GS-JCT-252           JUNCTION      0.00     4.44     1  10:03           0       0.494       0.006
  GS-JCT-254           JUNCTION      0.00    33.25     1  09:37           0        3.19       0.101
  GS-JCT-280           JUNCTION      0.00    42.85     1  10:55           0        4.76       0.003
  GS-JCT-342           JUNCTION      0.00     0.00     0  00:00           0           0       0.000 ltr
  GS-JCT-376           JUNCTION      0.00    11.38     1  09:32           0         1.1       0.008
  RM-JCT-100           JUNCTION      0.00   177.26     1  09:07           0          14       0.130
  RM-JCT-102           JUNCTION      0.00   177.32     1  09:07           0          14       0.166
  RM-JCT-104           JUNCTION      0.00   177.36     1  09:07           0        13.9       0.172
  RM-JCT-106           JUNCTION      0.00   177.48     1  09:07           0        13.9       0.099
  RM-JCT-108           JUNCTION      0.00   177.56     1  09:07           0        13.9       0.131
  RM-JCT-110           JUNCTION      0.00   177.61     1  09:07           0        13.9       0.111
  RM-JCT-114           JUNCTION      0.00   177.41     1  09:07           0        13.9       0.105
  RM-JCT-116           JUNCTION      0.00   177.67     1  09:07           0        13.8       0.124
  RM-JCT-118           JUNCTION      0.00   177.72     1  09:07           0        13.8       0.174
  RM-JCT-120           JUNCTION      0.00   177.76     1  09:07           0        13.8       0.185
  RM-JCT-122           JUNCTION      0.00   177.80     1  09:07           0        13.8       0.134
  RM-JCT-124           JUNCTION      0.00   177.92     1  09:07           0        13.1       0.235
  RM-JCT-126           JUNCTION      0.00   177.96     1  09:07           0          13       0.194
  RM-JCT-128           JUNCTION      0.00   178.00     1  09:07           0          13       0.199
  RM-JCT-130           JUNCTION      0.00   178.04     1  09:07           0          13       0.298
  RM-JCT-132           JUNCTION      0.00   178.06     1  09:07           0        12.9       0.214
  RM-JCT-134           JUNCTION      0.00   178.09     1  09:07           0        12.9       0.216
  RM-JCT-136           JUNCTION      0.00   178.11     1  09:07           0        12.9       0.258
  RM-JCT-138           JUNCTION      0.00   178.12     1  09:07           0        12.8       0.253
  RM-JCT-140           JUNCTION      0.00   178.14     1  09:07           0        12.8       0.275
  RM-JCT-142           JUNCTION      0.00   178.15     1  09:07           0        12.8       0.229
  RM-JCT-144           JUNCTION      0.00   178.16     1  09:07           0        12.7       0.133
  RM-JCT-146           JUNCTION      0.00   178.18     1  09:07           0        12.7       0.183
  RM-JCT-148           JUNCTION      0.00   178.19     1  09:07           0        12.7       0.360
  RM-JCT-150           JUNCTION      0.00   272.21     1  09:14           0        16.1       0.544
  RM-JCT-160           JUNCTION      0.00   174.70     1  09:07           0        12.6       0.657
  RM-JCT-166           JUNCTION      0.00   174.53     1  09:07           0        12.6       0.067
  RM-JCT-168           JUNCTION      0.00   174.32     1  09:07           0        12.6       0.045
  RM-JCT-170           JUNCTION      0.00     0.00     0  00:00           0           0       0.000 ltr
  RM-JCT-172           JUNCTION      0.00     0.00     0  00:00           0           0       0.000 ltr
  RM-JCT-174           JUNCTION      0.00     0.00     0  00:00           0           0       0.000 ltr
  RM-JCT-176           JUNCTION      0.00     0.00     0  00:00           0           0       0.000 ltr
  RM-JCT-18            JUNCTION      0.00   207.19     1  09:06           0        14.2       0.200
  RM-JCT-192           JUNCTION      0.00     1.39     1  22:37           0    2.41e-07       0.241 ltr
  RM-JCT-198           JUNCTION      0.00    92.99     1  10:26           0        9.67       0.012
  RM-JCT-20            JUNCTION      0.00   207.03     1  09:06           0        14.2       0.127
  RM-JCT-202           JUNCTION      0.00    92.99     1  10:26           0        9.67       0.069
  RM-JCT-204           JUNCTION      0.00    92.99     1  10:28           0        9.66       0.072
  RM-JCT-208           JUNCTION      0.00    93.04     1  10:21           0        9.73       0.042
  RM-JCT-210           JUNCTION      0.00     1.71     1  22:37           0    2.97e-07       0.297 ltr
  RM-JCT-22            JUNCTION      0.00   260.00     1  08:25           0        16.3       0.351
  RM-JCT-226           JUNCTION      0.00    92.92     1  10:31           0        9.65       0.035
  RM-JCT-228           JUNCTION      0.00    93.04     1  10:22           0          10       0.349
  RM-JCT-22_A          JUNCTION      0.00   266.11     1  09:14           0        16.3       1.396
  RM-JCT-230           JUNCTION      0.00    93.04     1  10:22           0        9.94       0.131
  RM-JCT-236           JUNCTION      0.00   156.23     1  22:37           0        10.5      -0.078
  RM-JCT-238           JUNCTION      0.00    93.04     1  10:21           0        10.5      -0.227
  RM-JCT-238_2         JUNCTION      0.00   140.07     1  22:37           0        10.6       0.393
  RM-JCT-242           JUNCTION      0.00    93.04     1  10:22           0        10.2       0.249
  RM-JCT-246           JUNCTION      0.00    93.04     1  10:22           0        10.2       0.184
  RM-JCT-248           JUNCTION      0.00    93.04     1  10:22           0        10.2       0.114
  RM-JCT-250           JUNCTION      0.00    93.04     1  10:22           0        10.2       0.159
  RM-JCT-258           JUNCTION      0.00    46.23     1  10:14           0        4.26       0.118
  RM-JCT-26            JUNCTION      0.00   214.27     1  09:06           0        14.7       0.012
  RM-JCT-260           JUNCTION      0.00    46.31     1  10:16           0        4.26       0.073
  RM-JCT-262           JUNCTION      0.00    46.48     1  10:13           0        4.28       0.166
  RM-JCT-264           JUNCTION      0.00    46.28     1  10:14           0        4.28       0.071
  RM-JCT-266           JUNCTION      0.00    46.23     1  10:14           0        4.27       0.220
  RM-JCT-268           JUNCTION      0.00    45.86     1  10:18           0        4.25       0.284
  RM-JCT-270           JUNCTION      0.00    45.86     1  10:18           0        4.24       0.197
  RM-JCT-272           JUNCTION      0.00    45.86     1  10:18           0        4.23       0.054
  RM-JCT-274           JUNCTION    -25.00   177.86     1  09:07      -0.522        13.8      -2.366
  RM-JCT-276           JUNCTION      0.00   236.78     1  22:37           0        10.4       0.154
  RM-JCT-278           JUNCTION      0.00   437.87     1  22:37           0        10.4       0.202
  RM-JCT-28            JUNCTION      0.00   204.01     1  09:06           0        14.7       0.264
  RM-JCT-282           JUNCTION      0.00   205.28     1  22:37           0        10.4       0.105
  RM-JCT-284           JUNCTION      0.00   262.78     1  22:37           0        10.4       0.125
  RM-JCT-288           JUNCTION      0.00    93.04     1  10:22           0        10.3       0.106
  RM-JCT-290           JUNCTION      0.00   297.92     1  22:35           0        10.3       0.018
  RM-JCT-292           JUNCTION      0.00    93.04     1  10:22           0        10.3       0.096
  RM-JCT-294           JUNCTION      0.00    93.04     1  10:21           0        10.3       0.110
  RM-JCT-296           JUNCTION      0.00   272.46     1  22:35           0        10.4       0.147
  RM-JCT-298           JUNCTION      0.00   251.85     1  22:35           0        10.4       0.105
  RM-JCT-30            JUNCTION      0.00   271.55     1  09:14           0        16.4       1.038
  RM-JCT-300           JUNCTION      0.00   218.23     1  22:35           0        10.4       0.052
  RM-JCT-302           JUNCTION      0.00   289.42     1  22:35           0        10.3       0.145
  RM-JCT-304           JUNCTION      0.00   295.32     1  22:35           0        10.3       0.202
  RM-JCT-306           JUNCTION      0.00   281.03     1  22:35           0        10.4       0.126
  RM-JCT-308           JUNCTION      0.00   228.95     1  22:37           0        10.5       0.243
  RM-JCT-310           JUNCTION      0.00   217.17     1  22:37           0        10.5       0.595
  RM-JCT-312           JUNCTION      0.00    93.04     1  10:22           0        10.2       0.195
  RM-JCT-314           JUNCTION      0.00    93.04     1  10:22           0        10.3       0.139
  RM-JCT-318           JUNCTION      0.00    93.04     1  10:22           0        10.2       0.275
  RM-JCT-32            JUNCTION      0.00   270.71     1  09:14           0        16.4       0.868
  RM-JCT-320           JUNCTION      0.00    93.04     1  10:22           0        10.1       0.307
  RM-JCT-322           JUNCTION      0.00    93.04     1  10:22           0        10.1       0.275
  RM-JCT-324           JUNCTION      0.00    93.04     1  10:22           0          10       0.125
  RM-JCT-326           JUNCTION      0.00    93.04     1  10:22           0        10.1       0.321
  RM-JCT-328           JUNCTION      0.00    93.04     1  10:22           0          10       0.205
  RM-JCT-334           JUNCTION      0.00    62.67     1  22:37           0        4.33       0.217
  RM-JCT-336           JUNCTION      0.00    83.24     1  22:37           0        4.34       0.225
  RM-JCT-338           JUNCTION      0.00    62.73     1  22:37           0        4.32       0.198
  RM-JCT-34            JUNCTION      0.00   272.05     1  09:14           0        16.3       1.333
  RM-JCT-340           JUNCTION      0.00    46.48     1  10:13           0        4.31       0.140
  RM-JCT-346           JUNCTION      0.00   273.44     1  09:14           0          16      -0.055
  RM-JCT-348           JUNCTION      0.00    93.04     1  10:22           0        9.91       0.228
  RM-JCT-350           JUNCTION      0.00    93.04     1  10:22           0        9.89      -0.143
  RM-JCT-352           JUNCTION      0.00    93.04     1  10:22           0        9.93       0.171
  RM-JCT-356           JUNCTION      0.00    53.33     1  22:37           0        4.35       0.165
  RM-JCT-358           JUNCTION      0.00    46.48     1  10:13           0        4.31       0.164
  RM-JCT-36            JUNCTION      0.00   272.32     1  09:14           0          16       0.293
  RM-JCT-360           JUNCTION      0.00    46.48     1  10:13           0         4.3       0.145
  RM-JCT-362           JUNCTION      0.00    46.48     1  10:13           0        4.29       0.211
  RM-JCT-370           JUNCTION      0.00    93.05     1  10:22           0         9.9       1.530
  RM-JCT-378           JUNCTION      0.00    88.68     1  10:19           0        10.1       0.009
  RM-JCT-378-3         JUNCTION     25.00    25.00     1  03:00       0.522        1.04      -0.018
  RM-JCT-38            JUNCTION      0.00   272.38     1  09:14           0          16       0.360
  RM-JCT-380           JUNCTION      0.00    45.85     1  10:19           0        4.25       0.036
  RM-JCT-384           JUNCTION      0.00    12.34     1  09:35           0         1.1      -0.149
  RM-JCT-386           JUNCTION      0.00    93.04     1  10:22           0        9.97       0.276
  RM-JCT-388           JUNCTION      0.00   204.36     1  09:06           0        14.6       0.186
  RM-JCT-390           JUNCTION      0.00   204.15     1  09:06           0        14.6       0.234
  RM-JCT-392           JUNCTION      0.00   267.20     1  09:05           0        15.2       0.338
  RM-JCT-394           JUNCTION      0.00   268.66     1  09:14           0        15.8       0.572
  RM-JCT-40            JUNCTION      0.00   268.89     1  09:24           0        16.2       0.797
  RM-JCT-42            JUNCTION      0.00   267.62     1  09:19           0        15.8       0.398
  RM-JCT-44            JUNCTION      0.00   267.21     1  09:05           0        15.4       0.238
  RM-JCT-48            JUNCTION      0.00   270.52     1  09:14           0        16.9       0.274
  RM-JCT-50            JUNCTION      0.00   274.51     1  22:35           0        16.7       1.015
  RM-JCT-52            JUNCTION      0.00   271.07     1  09:14           0          17       0.394
  RM-JCT-54            JUNCTION      0.00   272.11     1  09:14           0        17.1       0.056
  RM-JCT-56            JUNCTION      0.00   272.72     1  09:14           0        17.2       0.073
  RM-JCT-58            JUNCTION      0.00   273.18     1  09:14           0        17.3       0.104
  RM-JCT-60            JUNCTION      0.00   204.91     1  09:06           0        14.6       0.138
  RM-JCT-64            JUNCTION      0.00   205.30     1  09:06           0        14.5       0.288
  RM-JCT-66            JUNCTION      0.00   205.65     1  09:06           0        14.5       0.377
  RM-JCT-68            JUNCTION      0.00   205.77     1  09:06           0        14.4       0.226
  RM-JCT-70            JUNCTION      0.00   206.01     1  09:06           0        14.4       0.135
  RM-JCT-72            JUNCTION      0.00   206.31     1  09:06           0        14.4       0.334
  RM-JCT-74            JUNCTION      0.00   206.49     1  09:06           0        14.3       0.354
  RM-JCT-76            JUNCTION      0.00   206.69     1  09:06           0        14.3       0.309
  RM-JCT-78            JUNCTION      0.00   206.81     1  09:06           0        14.2       0.307
  RM-JCT-80            JUNCTION      0.00   206.90     1  09:06           0        14.2       0.181
  RM-JCT-82            JUNCTION      0.00   207.30     1  09:06           0        14.1       0.281
  RM-JCT-86            JUNCTION      0.00   207.35     1  09:06           0        14.1       0.334
  RM-JCT-88            JUNCTION      0.00   207.39     1  09:06           0          14       0.281
  RM-JCT-90            JUNCTION      0.00   207.42     1  09:06           0          14       0.127
  RM-JCT-92            JUNCTION      0.00   207.44     1  09:06           0          14       0.017
  RM-JCT-94            JUNCTION      0.00   185.96     1  09:06           0          14       0.026
  RM-JCT-96            JUNCTION      0.00   178.97     1  09:07           0          14       0.010
  RM-JCT-98            JUNCTION      0.00   177.23     1  09:07           0          14       0.011
  SELFS-PT-FLOW        JUNCTION    149.92   149.92     1  09:00        8.02        16.3      -0.006
  OFALL-SANDY-BAY-LONG OUTFALL       0.00   174.71     1  09:07           0        12.5       0.000
  OFALL-SANDY-BAY-SHORT OUTFALL       0.00     0.00     0  00:00           0           0       0.000 ltr
  SELF-PT-STP-INLET    OUTFALL       0.00    92.91     1  10:34           0        9.58       0.000
  BLINKING-BILLY-WET-WELL STORAGE       0.00    11.38     1  09:32           0         1.1       0.003
  BOH_1                STORAGE       0.00   273.66     1  09:14           0        14.7      -0.006
  BOH_2                STORAGE       0.00     0.00     0  00:00           0           0       0.000 ltr
  EFFLUENT-WET-WELL    STORAGE       0.00   150.30     1  09:00           0        16.4      -0.016
  SB-PS1-WET-WELL      STORAGE       0.00    46.68     1  10:04           0        4.39       0.000
  SB-PS2-WET-WELL      STORAGE       0.00    93.11     1  10:20           0        10.6      -0.002
  
  
  **********************
  Node Surcharge Summary
  **********************
  
  Surcharging occurs when water rises above the top of the highest conduit.
  ---------------------------------------------------------------------
                                               Max. Height   Min. Depth
                                   Hours       Above Crown    Below Rim
  Node                 Type      Surcharged         Meters       Meters
  ---------------------------------------------------------------------
  000.00               JUNCTION       23.00          6.866        0.000
  18034                JUNCTION       23.00         13.114        0.000
  18037                JUNCTION       23.00          3.707        0.000
  18039                JUNCTION       23.00          2.215        0.000
  23205                JUNCTION       14.92          1.331        0.498
  23229                JUNCTION       23.00         44.527        0.000
  242.37-2             JUNCTION       23.00         17.800        0.000
  27432                JUNCTION       23.00          3.682        6.316
  27435                JUNCTION       23.00          1.287        6.497
  27438                JUNCTION       23.00          0.793        0.669
  RM-JCT-100           JUNCTION       23.00         15.616        0.000
  RM-JCT-102           JUNCTION       23.00         21.198        0.000
  RM-JCT-104           JUNCTION       23.00         21.121        0.000
  RM-JCT-106           JUNCTION       23.00         20.949        0.000
  RM-JCT-108           JUNCTION       23.00         20.617        0.000
  RM-JCT-110           JUNCTION       23.00         20.382        0.000
  RM-JCT-114           JUNCTION       23.00         21.071        0.000
  RM-JCT-116           JUNCTION       23.00         20.085        0.000
  RM-JCT-118           JUNCTION       23.00         17.025        0.000
  RM-JCT-120           JUNCTION       23.00         13.725        0.000
  RM-JCT-122           JUNCTION       23.00         16.673        0.000
  RM-JCT-124           JUNCTION       23.00         13.767        0.000
  RM-JCT-126           JUNCTION       23.00         18.512        0.000
  RM-JCT-128           JUNCTION       23.00         18.714        0.000
  RM-JCT-130           JUNCTION       23.00         11.833        0.000
  RM-JCT-132           JUNCTION       23.00         11.308        0.000
  RM-JCT-134           JUNCTION       23.00         11.214        0.000
  RM-JCT-136           JUNCTION       23.00          8.874        0.000
  RM-JCT-138           JUNCTION       23.00          8.299        0.000
  RM-JCT-140           JUNCTION       23.00          9.310        0.000
  RM-JCT-142           JUNCTION       23.00          9.330        0.000
  RM-JCT-144           JUNCTION       23.00          9.200        0.000
  RM-JCT-146           JUNCTION       23.00          9.211        0.000
  RM-JCT-148           JUNCTION       23.00         10.809        0.000
  RM-JCT-150           JUNCTION       22.91        173.744        0.000
  RM-JCT-160           JUNCTION       23.00          2.196        0.000
  RM-JCT-166           JUNCTION       15.94          1.385        0.558
  RM-JCT-168           JUNCTION       15.18          1.348        0.500
  RM-JCT-18            JUNCTION       23.00         23.246        0.000
  RM-JCT-20            JUNCTION       23.00         24.497        0.000
  RM-JCT-22            JUNCTION       19.27        129.081        0.000
  RM-JCT-228           JUNCTION       23.00         36.576        0.000
  RM-JCT-22_A          JUNCTION       21.70        128.994        0.000
  RM-JCT-230           JUNCTION       23.00         32.517        0.000
  RM-JCT-236           JUNCTION       23.00        101.012        0.000
  RM-JCT-238           JUNCTION       23.00        101.590        0.000
  RM-JCT-238_2         JUNCTION       23.00        100.045        0.000
  RM-JCT-242           JUNCTION       23.00         21.802        0.000
  RM-JCT-246           JUNCTION       23.00         25.611        0.000
  RM-JCT-248           JUNCTION       23.00         27.799        0.000
  RM-JCT-250           JUNCTION       23.00         30.556        0.000
  RM-JCT-266           JUNCTION        8.82          0.154        0.562
  RM-JCT-268           JUNCTION       23.00          5.651        0.000
  RM-JCT-270           JUNCTION       23.00          4.811        0.000
  RM-JCT-274           JUNCTION       23.00         17.123        0.000
  RM-JCT-276           JUNCTION       23.00         97.614        0.000
  RM-JCT-278           JUNCTION       23.00        100.094        0.000
  RM-JCT-28            JUNCTION       23.00         24.005        0.000
  RM-JCT-282           JUNCTION       23.00        101.947        0.000
  RM-JCT-284           JUNCTION       23.00        102.168        0.000
  RM-JCT-288           JUNCTION       23.00         10.788        0.000
  RM-JCT-292           JUNCTION       23.00         20.423        0.000
  RM-JCT-294           JUNCTION       23.00         17.602        0.000
  RM-JCT-296           JUNCTION       23.00         99.513        0.000
  RM-JCT-298           JUNCTION       23.00        101.402        0.000
  RM-JCT-30            JUNCTION       22.88        170.608        0.000
  RM-JCT-300           JUNCTION       23.00        102.194        0.000
  RM-JCT-302           JUNCTION       23.00        101.183        0.000
  RM-JCT-304           JUNCTION       22.99        101.300        0.000
  RM-JCT-306           JUNCTION       23.00        101.660        0.000
  RM-JCT-308           JUNCTION       23.00         98.381        0.000
  RM-JCT-310           JUNCTION       23.00        101.055        0.000
  RM-JCT-312           JUNCTION       23.00         20.768        0.000
  RM-JCT-314           JUNCTION       23.00         21.681        0.000
  RM-JCT-318           JUNCTION       23.00         33.680        0.000
  RM-JCT-32            JUNCTION       22.53        170.608        0.000
  RM-JCT-320           JUNCTION       23.00         46.252        0.000
  RM-JCT-322           JUNCTION       23.00         45.628        0.000
  RM-JCT-324           JUNCTION       23.00         47.974        0.000
  RM-JCT-326           JUNCTION       23.00         49.866        0.000
  RM-JCT-328           JUNCTION       23.00         45.653        0.000
  RM-JCT-334           JUNCTION       23.00         41.945        0.000
  RM-JCT-336           JUNCTION       23.00         38.429        0.000
  RM-JCT-338           JUNCTION       23.00         46.529        0.000
  RM-JCT-34            JUNCTION       21.85        171.418        0.000
  RM-JCT-340           JUNCTION       22.99         51.874        0.000
  RM-JCT-346           JUNCTION        0.88          0.870        0.738
  RM-JCT-348           JUNCTION       23.00         25.891        0.000
  RM-JCT-350           JUNCTION       23.00         27.499        0.000
  RM-JCT-352           JUNCTION       23.00         21.233        0.000
  RM-JCT-356           JUNCTION       23.00         44.427        0.000
  RM-JCT-358           JUNCTION       23.00         43.396        0.000
  RM-JCT-36            JUNCTION       23.00        152.948        0.000
  RM-JCT-360           JUNCTION       23.00         35.110        0.000
  RM-JCT-362           JUNCTION       23.00         27.279        0.000
  RM-JCT-370           JUNCTION       23.00         25.442        0.000
  RM-JCT-378-3         JUNCTION       22.99          2.995        0.000
  RM-JCT-38            JUNCTION       23.00        171.138        0.000
  RM-JCT-384           JUNCTION       18.85         16.257        0.000
  RM-JCT-386           JUNCTION       23.00         24.992        0.000
  RM-JCT-388           JUNCTION       23.00         13.241        0.000
  RM-JCT-390           JUNCTION       23.00         20.332        0.000
  RM-JCT-392           JUNCTION       19.58        170.978        0.000
  RM-JCT-394           JUNCTION       18.77        171.088        0.000
  RM-JCT-40            JUNCTION       21.38        168.446        0.000
  RM-JCT-42            JUNCTION       23.00        170.608        0.000
  RM-JCT-44            JUNCTION       22.51        170.608        0.000
  RM-JCT-48            JUNCTION       23.00        157.635        0.000
  RM-JCT-50            JUNCTION       21.15        172.578        0.000
  RM-JCT-52            JUNCTION       22.98        170.808        0.000
  RM-JCT-54            JUNCTION       23.00        158.717        0.000
  RM-JCT-56            JUNCTION       23.00        143.170        0.000
  RM-JCT-58            JUNCTION       23.00        112.447        0.000
  RM-JCT-60            JUNCTION       23.00         23.916        0.000
  RM-JCT-64            JUNCTION       23.00         15.773        0.000
  RM-JCT-66            JUNCTION       23.00         26.602        0.000
  RM-JCT-68            JUNCTION       23.00         35.040        0.000
  RM-JCT-70            JUNCTION       23.00         37.281        0.000
  RM-JCT-72            JUNCTION       23.00         39.464        0.000
  RM-JCT-74            JUNCTION       23.00         37.557        0.000
  RM-JCT-76            JUNCTION       23.00         37.722        0.000
  RM-JCT-78            JUNCTION       23.00         27.926        0.000
  RM-JCT-80            JUNCTION       23.00         26.231        0.000
  RM-JCT-82            JUNCTION       23.00         20.365        0.000
  RM-JCT-86            JUNCTION       23.00         15.302        0.000
  RM-JCT-88            JUNCTION       23.00         10.376        0.000
  RM-JCT-90            JUNCTION       23.00          7.045        0.000
  RM-JCT-98            JUNCTION        8.16          5.291        0.000
  SELFS-PT-FLOW        JUNCTION       23.00          1.163        2.337
  
  
  *********************
  Node Flooding Summary
  *********************
  
  Flooding refers to all water that overflows a node, whether it ponds or not.
  --------------------------------------------------------------------------
                                                             Total   Maximum
                                 Maximum   Time of Max       Flood    Ponded
                        Hours       Rate    Occurrence      Volume     Depth
  Node                 Flooded       LPS   days hr:min    10^6 ltr    Meters
  --------------------------------------------------------------------------
  RM-JCT-150              0.01    138.28      1  22:37       0.000   170.000
  RM-JCT-236              0.01     41.86      1  22:37       0.000   100.000
  RM-JCT-238              0.01     73.60      1  22:37       0.000   100.000
  RM-JCT-238_2            0.01     97.75      1  22:35       0.000   100.000
  RM-JCT-282              0.01     41.11      1  22:37       0.000   100.000
  RM-JCT-284              0.01     16.84      1  22:37       0.000   100.000
  RM-JCT-298              0.01     42.89      1  22:37       0.000   100.000
  RM-JCT-30               0.01    126.00      1  22:37       0.000   170.000
  RM-JCT-300              0.01     63.74      1  22:37       0.000   100.000
  RM-JCT-302              0.01     69.97      1  22:37       0.000   100.000
  RM-JCT-304              0.01     87.05      1  22:37       0.000   100.000
  RM-JCT-306              0.01     46.30      1  22:37       0.000   100.000
  RM-JCT-310              0.01     13.96      1  22:35       0.000   100.000
  RM-JCT-32               0.01     88.40      1  22:37       0.000   170.000
  RM-JCT-34               0.01     65.37      1  22:37       0.000   170.000
  RM-JCT-38               0.01     50.70      1  22:37       0.000   170.000
  RM-JCT-392              0.01     26.53      1  22:37       0.000   170.000
  RM-JCT-394              0.01     23.74      1  22:37       0.000   170.000
  RM-JCT-42               0.01     22.76      1  22:37       0.000   170.000
  RM-JCT-44               0.01     34.55      1  22:37       0.000   170.000
  RM-JCT-50               0.01    195.15      1  22:35       0.000   170.000
  RM-JCT-52               0.01     42.52      1  22:37       0.000   170.000
  
  
  **********************
  Storage Volume Summary
  **********************
  
  --------------------------------------------------------------------------------------------------
                         Average     Avg  Evap Exfil       Maximum     Max    Time of Max    Maximum
                          Volume    Pcnt  Pcnt  Pcnt        Volume    Pcnt     Occurrence    Outflow
  Storage Unit           1000 m3    Full  Loss  Loss       1000 m3    Full    days hr:min        LPS
  --------------------------------------------------------------------------------------------------
  BLINKING-BILLY-WET-WELL     0.001       5     0     0         0.002      14       1  09:32      12.34
  BOH_1                    0.001       9     0     0         0.006      42       1  09:06     237.95
  BOH_2                    0.000       0     0     0         0.000       0       0  00:00       0.00
  EFFLUENT-WET-WELL        0.018      20     0     0         0.052      58       1  09:05     260.00
  SB-PS1-WET-WELL          0.024      23     0     0         0.053      50       1  10:13      46.48
  SB-PS2-WET-WELL          0.025      17     0     0         0.052      37       1  10:21      93.04
  
  
  ***********************
  Outfall Loading Summary
  ***********************
  
  -----------------------------------------------------------
                         Flow       Avg       Max       Total
                         Freq      Flow      Flow      Volume
  Outfall Node           Pcnt       LPS       LPS    10^6 ltr
  -----------------------------------------------------------
  OFALL-SANDY-BAY-LONG  49.51     88.67    174.71      12.509
  OFALL-SANDY-BAY-SHORT   0.00      0.00      0.00       0.000
  SELF-PT-STP-INLET     49.51     64.76     92.91       9.580
  -----------------------------------------------------------
  System                33.01    153.43    264.36      22.089
  
  
  ********************
  Link Flow Summary
  ********************
  
  -----------------------------------------------------------------------------
                                 Maximum  Time of Max   Maximum    Max/    Max/
                                  |Flow|   Occurrence   |Veloc|    Full    Full
  Link                 Type          LPS  days hr:min     m/sec    Flow   Depth
  -----------------------------------------------------------------------------
  87772                CONDUIT    207.19     1  09:06      0.86    0.21    1.00
  87783                CONDUIT    266.11     1  09:14      2.20   29.34    1.00
  87783_2              CONDUIT    272.21     1  09:14      2.26    1.81    1.00
  87784                CONDUIT    204.01     1  09:06      1.37    0.07    0.59
  87794                CONDUIT    270.71     1  09:14      2.24    1.92    1.00
  87795                CONDUIT    271.55     1  09:14      2.25    1.92    1.00
  87796                CONDUIT    272.05     1  09:14      2.25    0.66    1.00
  87797                CONDUIT    272.32     1  09:14      2.26    0.74    1.00
  87798                CONDUIT    268.89     1  09:24      2.23    0.83    1.00
  87799                CONDUIT    267.62     1  09:19      2.22    1.21    1.00
  87800                CONDUIT    269.76     1  09:14      2.24    1.04    1.00
  87801                CONDUIT    270.52     1  09:14      2.24    7.51    1.00
  87802                CONDUIT    271.07     1  09:14      2.25    0.90    1.00
  87803                CONDUIT    272.11     1  09:14      2.25    0.59    1.00
  87804                CONDUIT    272.72     1  09:14      2.26    0.59    1.00
  87805                CONDUIT    273.18     1  09:14      2.26    0.59    1.00
  87806                CONDUIT    204.15     1  09:06      0.84    0.15    1.00
  87806-3              CONDUIT    204.91     1  09:06      0.85    0.06    1.00
  87806-4              CONDUIT    204.36     1  09:06      0.84    0.12    1.00
  87807                CONDUIT    205.30     1  09:06      0.85    0.09    1.00
  87808                CONDUIT    205.65     1  09:06      0.85    0.12    1.00
  87809                CONDUIT    205.77     1  09:06      0.85    0.12    1.00
  87810                CONDUIT    206.31     1  09:06      0.85    0.16    1.00
  87811                CONDUIT    206.01     1  09:06      0.85    0.14    1.00
  87812                CONDUIT    206.49     1  09:06      0.85    0.40    1.00
  87813                CONDUIT    206.69     1  09:06      0.85    0.41    1.00
  87814                CONDUIT    206.81     1  09:06      0.85    0.13    1.00
  87815                CONDUIT    206.90     1  09:06      0.86    0.25    1.00
  87816                CONDUIT    207.03     1  09:06      0.86    0.19    1.00
  87817                CONDUIT    207.30     1  09:06      0.86    0.22    1.00
  87818                CONDUIT    207.35     1  09:06      0.86    0.15    1.00
  87819                CONDUIT    207.39     1  09:06      0.86    0.19    1.00
  87820                CONDUIT    207.42     1  09:06      0.86    0.15    1.00
  87821                CONDUIT    207.44     1  09:06      1.23    0.07    0.66
  87822                CONDUIT    185.96     1  09:06      3.69    0.23    0.32
  87823                CONDUIT    178.97     1  09:07      5.37    0.13    0.24
  87824                CONDUIT    177.23     1  09:07      5.27    0.08    0.60
  87825                CONDUIT    177.26     1  09:07      0.97    0.09    1.00
  87826                CONDUIT    177.32     1  09:07      0.97    0.13    1.00
  87827                CONDUIT    177.36     1  09:07      0.97    0.91    1.00
  87828                CONDUIT    177.56     1  09:07      0.97    0.69    1.00
  87829                CONDUIT    177.61     1  09:07      0.97    0.99    1.00
  87830                CONDUIT    177.41     1  09:07      0.97    0.92    1.00
  87831                CONDUIT    177.48     1  09:07      0.97    0.97    1.00
  87832                CONDUIT    177.67     1  09:07      0.97    0.57    1.00
  87833                CONDUIT    177.72     1  09:07      0.97    0.20    1.00
  87834                CONDUIT    177.76     1  09:07      0.97    0.21    1.00
  87835                CONDUIT    177.80     1  09:07      0.97    0.22    1.00
  87836                CONDUIT    177.86     1  09:07      0.97    0.10    1.00
  87836-2              CONDUIT    177.92     1  09:07      0.97    0.14    1.00
  87837                CONDUIT    177.96     1  09:07      0.97    0.21    1.00
  87838                CONDUIT    178.00     1  09:07      0.97    0.43    1.00
  87839                CONDUIT    178.04     1  09:07      0.97    0.19    1.00
  87840                CONDUIT    178.06     1  09:07      0.97    0.78    1.00
  87841                CONDUIT    178.09     1  09:07      0.97    1.52    1.00
  87842                CONDUIT    178.11     1  09:07      0.97    0.29    1.00
  87843                CONDUIT    178.12     1  09:07      0.97    0.78    1.00
  87844                CONDUIT    178.14     1  09:07      0.97    0.37    1.00
  87845                CONDUIT    178.15     1  09:07      0.97    0.70    1.00
  87846                CONDUIT    178.16     1  09:07      0.97    1.03    1.00
  87847                CONDUIT    178.18     1  09:07      0.97    0.61    1.00
  87848                CONDUIT    178.19     1  09:07      0.97    0.29    1.00
  87849                CONDUIT    178.19     1  09:07      0.97    0.32    1.00
  87849-2              CONDUIT    174.26     1  09:07      1.54    0.11    0.62
  87849-3              CONDUIT    178.19     1  09:07      1.57    0.17    0.60
  87850                CONDUIT    268.66     1  09:14      2.23    1.90    1.00
  87850-2              CONDUIT    267.21     1  09:05      2.21    0.95    1.00
  87850-3              CONDUIT    267.20     1  09:05      2.21    0.37    1.00
  87852                CONDUIT    272.38     1  09:14      2.26    1.37    1.00
  8787493-3            CONDUIT    174.98     1  09:07      6.21    0.08    0.21
  88084                CONDUIT     33.25     1  10:06      0.52    0.09    0.20
  88794                CONDUIT      0.09     1  08:03      0.09    0.00    0.08
  88795                CONDUIT     42.84     1  10:19      1.25    0.11    0.23
  88796                CONDUIT     21.42     1  10:14      0.78    0.06    0.20
  88797                CONDUIT     21.42     1  10:14      1.01    0.06    0.16
  88798                CONDUIT     42.84     1  10:18      1.26    0.12    0.23
  88799                CONDUIT     42.84     1  10:17      1.22    0.12    0.23
  88800                CONDUIT     21.42     1  10:10      1.01    0.06    0.16
  88801                CONDUIT     21.42     1  10:11      1.01    0.06    0.16
  89358                CONDUIT     21.43     1  10:03      1.03    0.06    0.16
  91183                CONDUIT      4.44     1  10:02      0.95    0.22    0.32
  91184                CONDUIT      0.00     0  00:00      0.00    0.00    0.16
  91351                CONDUIT     33.25     1  09:33      0.51    0.35    0.30
  91352                CONDUIT     33.25     1  09:35      0.55    0.17    0.29
  91353                CONDUIT     33.25     1  09:34      0.56    0.17    0.28
  91354                CONDUIT     33.25     1  09:34      0.57    0.17    0.28
  91356                CONDUIT     33.25     1  09:33      0.56    0.12    0.28
  91357                CONDUIT     33.25     1  09:24      0.64    0.16    0.26
  91358                CONDUIT     33.26     1  09:23      0.59    0.16    0.27
  91440                CONDUIT      4.44     1  10:03      1.05    0.06    0.16
  91441                CONDUIT      4.44     1  10:03      1.08    0.02    0.15
  91441-2              CONDUIT      4.44     1  10:03      1.02    0.04    0.16
  91463                CONDUIT      0.00     0  00:00      0.00    0.00    0.00
  91464                CONDUIT      0.00     0  00:00      0.00    0.00    0.00
  91465                CONDUIT      0.00     0  00:00      0.00    0.00    0.00
  91466                CONDUIT     33.28     1  09:18      0.57    0.24    0.33
  91467                CONDUIT      0.13     1  09:04      0.06    0.00    0.04
  91468                CONDUIT      0.00     0  00:00      0.00    0.00    0.02
  91469                CONDUIT      0.00     0  00:00      0.00    0.00    0.00
  91470                CONDUIT     33.27     1  09:20      0.59    0.24    0.33
  92325                CONDUIT      0.00     0  00:00      0.00    0.00    0.50
  92325-2              CONDUIT    174.70     1  09:07      0.81    0.19    1.00
  92330-2              CONDUIT    174.32     1  09:07      1.03    1.42    1.00
  92332                CONDUIT      0.00     0  00:00      0.00    0.00    0.00
  92333                CONDUIT      0.00     0  00:00      0.00    0.00    0.00
  92346                CONDUIT      0.00     0  00:00      0.00    0.00    0.00
  92347                CONDUIT     13.53     1  09:39      1.45    0.36    0.54
  92348                CONDUIT     13.53     1  09:38      1.62    0.36    0.54
  92430                CONDUIT      1.23     1  09:03      0.91    0.02    0.21
  92431                CONDUIT     13.53     1  09:38      2.73    0.24    0.33
  92436                CONDUIT      9.63     1  09:18      0.31    0.02    0.09
  92437                CONDUIT      9.63     1  09:28      0.31    0.02    0.09
  92438                CONDUIT      9.63     1  09:31      0.33    0.02    0.09
  92439                CONDUIT      9.63     1  10:00      0.31    0.02    0.09
  92440                CONDUIT      9.63     1  09:24      0.31    0.02    0.09
  92522                CONDUIT     53.33     1  22:37      0.69    6.48    1.00
  92528                CONDUIT     33.25     1  09:52      0.66    0.17    0.25
  92530                CONDUIT      0.60     1  08:00      0.03    0.00    0.09
  92531                CONDUIT     33.36     1  10:16      0.57    0.05    0.15
  92532                CONDUIT     33.25     1  09:56      0.51    0.05    0.16
  92533                CONDUIT      9.63     1  09:10      0.32    0.02    0.09
  95054                CONDUIT     92.94     1  10:32      0.69    0.15    1.00
  95139                CONDUIT      1.39     1  22:37      0.02    0.00    0.50
  95140                CONDUIT     93.01     1  10:25      2.45    0.18    0.32
  95141                CONDUIT     92.99     1  10:26      3.18    0.18    0.27
  95142                CONDUIT     92.99     1  10:26      1.78    0.34    0.41
  95143                CONDUIT     92.99     1  10:28      1.78    0.34    0.41
  95144                CONDUIT     92.92     1  10:32      0.99    0.12    0.66
  95145                CONDUIT     92.91     1  10:33      2.53    0.21    0.32
  95146                CONDUIT     92.91     1  10:33      2.54    0.21    0.32
  95149                CONDUIT     93.03     1  10:22      1.04    0.14    0.63
  9517-3               CONDUIT      0.00     0  00:00      0.00    0.00    0.00
  95172                CONDUIT      1.71     1  22:37      0.03    0.00    0.50
  95172-2              CONDUIT      0.00     0  00:00      0.00    0.00    0.00
  95176                CONDUIT     33.25     1  09:51      0.56    0.17    0.28
  95207                CONDUIT     33.25     1  09:43      0.57    0.17    0.28
  95208                CONDUIT     33.25     1  09:48      0.57    0.17    0.28
  95247                CONDUIT     92.92     1  10:32      3.20    0.15    0.27
  95248                CONDUIT     92.92     1  10:32      1.03    0.15    0.63
  95249                CONDUIT     92.92     1  10:32      0.69    0.15    1.00
  95268                CONDUIT     92.99     1  10:26      2.76    0.07    0.30
  95305                CONDUIT     92.96     1  10:29      1.60    0.34    0.45
  95306                CONDUIT     92.92     1  10:31      2.02    0.34    0.37
  95307                CONDUIT     92.92     1  10:31      3.20    0.15    0.27
  95308                CONDUIT     93.04     1  10:22      0.60    0.12    1.00
[...]
  97164-3                 2.62   0.00  0.00  0.00  0.07  0.43  0.00  0.00  0.43  0.00
  97165                   1.00   0.00  0.00  0.00  0.49  0.01  0.00  0.00  0.00  0.00
  97165-2                 2.62   0.00  0.00  0.00  0.00  0.00  0.00  0.50  0.00  0.00
  97166                   1.00   0.00  0.00  0.00  0.50  0.00  0.00  0.00  0.00  0.00
  97167                   1.00   0.00  0.00  0.00  0.00  0.50  0.00  0.00  0.00  0.00
  97167-2                 6.72   0.00  0.00  0.00  0.05  0.45  0.00  0.00  0.49  0.00
  97168                   1.00   0.00  0.00  0.00  0.50  0.00  0.00  0.00  0.00  0.00
  97169                   1.00   0.00  0.00  0.00  0.50  0.00  0.00  0.00  0.00  0.00
  97175                   1.00   0.00  0.00  0.00  0.50  0.00  0.00  0.00  0.49  0.00
  97176                   1.00   0.00  0.00  0.00  0.50  0.00  0.00  0.00  0.00  0.00
  97177                   1.00   0.00  0.00  0.00  0.50  0.00  0.00  0.00  0.00  0.00
  97177-97178             1.00   0.00  0.00  0.00  0.50  0.00  0.00  0.00  0.00  0.00
  97178                   1.00   0.00  0.00  0.00  0.50  0.00  0.00  0.00  0.00  0.00
  97179                   1.00   0.00  0.00  0.00  0.50  0.00  0.00  0.00  0.00  0.00
  97180                   1.00   0.00  0.00  0.00  0.50  0.00  0.00  0.00  0.00  0.00
  97183                   1.00   0.00  0.00  0.00  0.50  0.00  0.00  0.00  0.00  0.00
  97196                   1.00   0.00  0.00  0.00  0.00  0.50  0.00  0.00  0.05  0.00
  97197                   1.00   0.00  0.00  0.00  0.00  0.50  0.00  0.00  0.06  0.00
  97198                   1.00   0.00  0.00  0.00  0.00  0.50  0.00  0.00  0.07  0.00
  97274                   1.00   0.00  0.00  0.00  0.50  0.00  0.00  0.00  0.00  0.00
  97275                   1.00   0.00  0.00  0.00  0.50  0.00  0.00  0.00  0.00  0.00
  97276                   1.00   0.00  0.00  0.00  0.50  0.00  0.00  0.00  0.00  0.00
  97277                   1.00   0.00  0.00  0.00  0.50  0.00  0.00  0.00  0.00  0.00
  97279                   1.00   0.00  0.00  0.00  0.50  0.00  0.00  0.00  0.00  0.00
  97280                   1.00   0.00  0.00  0.00  0.50  0.00  0.00  0.00  0.00  0.00
  97281                   1.00   0.00  0.00  0.00  0.50  0.00  0.00  0.00  0.00  0.00
  97321                   1.00   0.00  0.00  0.00  0.50  0.00  0.00  0.00  0.00  0.00
  97322                   1.00   0.00  0.00  0.00  0.50  0.00  0.00  0.00  0.00  0.00
  97323                   1.00   0.00  0.00  0.00  0.50  0.00  0.00  0.00  0.00  0.00
  97324                   1.00   0.00  0.00  0.00  0.50  0.00  0.00  0.00  0.00  0.00
  97325                   1.00   0.00  0.00  0.00  0.50  0.00  0.00  0.00  0.49  0.00
  97327                   1.00   0.50  0.00  0.00  0.00  0.00  0.00  0.00  0.00  0.00
  97328                   1.00   0.00  0.00  0.00  0.50  0.00  0.00  0.00  0.00  0.00
  97328-2                 1.00   0.00  0.00  0.00  0.00  0.00  0.00  0.50  0.00  0.00
  97331                   1.00   0.00  0.00  0.00  0.50  0.00  0.00  0.00  0.00  0.00
  97332                   1.00   0.00  0.00  0.00  0.50  0.00  0.00  0.00  0.00  0.00
  97334                   3.49   0.50  0.00  0.00  0.00  0.00  0.00  0.00  0.00  0.00
  97335                   3.70   0.50  0.00  0.00  0.00  0.00  0.00  0.00  0.00  0.00
  97336                   3.09   0.50  0.00  0.00  0.00  0.00  0.00  0.00  0.00  0.00
  97347                   1.00   0.00  0.00  0.00  0.50  0.00  0.00  0.00  0.13  0.00
  97388                   1.00   0.00  0.00  0.00  0.50  0.00  0.00  0.00  0.39  0.00
  97389                   1.00   0.00  0.00  0.00  0.50  0.00  0.00  0.00  0.40  0.00
  97390                   1.00   0.00  0.00  0.00  0.50  0.00  0.00  0.00  0.37  0.00
  97424                   1.00   0.00  0.00  0.00  0.50  0.00  0.00  0.00  0.00  0.00
  97425                   1.00   0.00  0.00  0.00  0.50  0.00  0.00  0.00  0.00  0.00
  97426                   1.00   0.00  0.00  0.00  0.50  0.00  0.00  0.00  0.00  0.00
  97430                   1.00   0.00  0.00  0.00  0.50  0.00  0.00  0.00  0.00  0.00
  97430-2                 1.00   0.00  0.00  0.00  0.50  0.00  0.00  0.00  0.00  0.00
  97430-3                 1.24   0.00  0.00  0.00  0.00  0.50  0.00  0.00  0.00  0.00
  97431                   1.00   0.00  0.00  0.00  0.50  0.00  0.00  0.00  0.00  0.00
  97431-2                 6.95   0.00  0.00  0.00  0.50  0.00  0.00  0.00  0.00  0.00
  97432                   1.00   0.00  0.00  0.00  0.50  0.00  0.00  0.00  0.00  0.00
  97436                   1.00   0.00  0.00  0.00  0.50  0.00  0.00  0.00  0.00  0.00
  97710                   1.00   0.00  0.00  0.00  0.50  0.00  0.00  0.00  0.49  0.00
  97717                   1.00   0.00  0.00  0.00  0.50  0.00  0.00  0.00  0.39  0.00
  97728                   1.00   0.00  0.00  0.00  0.50  0.00  0.00  0.00  0.41  0.00
  97732                   1.00   0.00  0.00  0.00  0.50  0.00  0.00  0.00  0.00  0.00
  97733                   1.00   0.00  0.00  0.00  0.50  0.00  0.00  0.00  0.00  0.00
  97734                   1.00   0.00  0.00  0.00  0.50  0.00  0.00  0.00  0.00  0.00
  97735                   1.00   0.00  0.00  0.00  0.50  0.00  0.00  0.00  0.00  0.00
  97736                   1.00   0.00  0.00  0.00  0.50  0.00  0.00  0.00  0.00  0.00
  97737                   1.00   0.00  0.00  0.00  0.50  0.00  0.00  0.00  0.00  0.00
  98855                   1.00   0.00  0.00  0.00  0.50  0.00  0.00  0.00  0.00  0.00
  98856                   1.00   0.00  0.00  0.00  0.00  0.50  0.00  0.00  0.21  0.00
  98857                   1.00   0.00  0.00  0.00  0.50  0.00  0.00  0.00  0.00  0.00
  99207                   1.00   0.00  0.00  0.00  0.50  0.00  0.00  0.00  0.00  0.00
  99208                   1.00   0.00  0.00  0.00  0.50  0.00  0.00  0.00  0.00  0.00
  99210                   1.00   0.00  0.00  0.00  0.50  0.00  0.00  0.00  0.49  0.00
  99211                   1.00   0.00  0.00  0.00  0.50  0.00  0.00  0.00  0.00  0.00
  99498                   1.00   0.00  0.00  0.00  0.50  0.00  0.00  0.00  0.00  0.00
  99498-2                 7.39   0.00  0.00  0.00  0.00  0.00  0.50  0.00  0.00  0.00
  OUTFALL-PIPE-2          1.00   0.50  0.00  0.00  0.00  0.00  0.00  0.00  0.00  0.00
  RM-100-01               1.00   0.00  0.00  0.00  0.50  0.00  0.00  0.00  0.00  0.00
  RM-100-02               1.00   0.00  0.00  0.00  0.21  0.29  0.00  0.00  0.00  0.00
  RM-100-03               1.00   0.00  0.00  0.00  0.00  0.50  0.00  0.00  0.00  0.00
  RM-100-04               1.00   0.00  0.00  0.00  0.00  0.50  0.00  0.00  0.49  0.00
  SELFS-PT-DUMMY-EFFLUENT-MAIN    1.00   0.00  0.00  0.00  0.50  0.00  0.00  0.00  0.00  0.00
  
  
  *************************
  Conduit Surcharge Summary
  *************************
  
  ----------------------------------------------------------------------------
                                                           Hours        Hours 
                         --------- Hours Full --------   Above Full   Capacity
  Conduit                Both Ends  Upstream  Dnstream   Normal Flow   Limited
  ----------------------------------------------------------------------------
  87772                      23.00     23.00     23.00      0.01         0.01
  87783                      19.06     19.09     21.64     18.86        15.70
  87783_2                    21.56     22.88     21.64      2.29         5.27
  87784                       0.01      0.01     23.00      0.01         0.01
  87794                      22.33     22.44     22.85      3.71         4.68
  87795                      21.56     22.85     21.67      3.72         4.09
  87796                      21.67     21.67     23.00      0.01         0.03
  87797                      22.99     22.99     23.00      0.01         0.14
  87798                      21.14     21.15     22.98      0.01         0.54
  87799                      22.31     22.98     22.33      0.30         1.86
  87800                      20.05     20.82     21.15      0.16         0.92
  87801                      20.82     23.00     20.82     18.71         4.57
  87802                      22.97     22.97     23.00      0.01         0.07
  87803                      22.97     22.97     23.00      0.01         0.04
  87804                      23.00     23.00     23.00      0.01         0.05
  87805                      23.00     23.00     23.00      0.01         0.11
  87806                      23.00     23.00     23.00      0.01         0.01
  87806-3                    23.00     23.00     23.00      0.01         0.01
  87806-4                    23.00     23.00     23.00      0.01         0.01
  87807                      23.00     23.00     23.00      0.01         0.01
  87808                      23.00     23.00     23.00      0.01         0.01
  87809                      23.00     23.00     23.00      0.01         0.01
  87810                      23.00     23.00     23.00      0.01         0.01
  87811                      23.00     23.00     23.00      0.01         0.01
  87812                      23.00     23.00     23.00      0.01         0.01
  87813                      23.00     23.00     23.00      0.01         0.01
  87814                      23.00     23.00     23.00      0.01         0.01
  87815                      23.00     23.00     23.00      0.01         0.01
  87816                      23.00     23.00     23.00      0.01         0.01
  87817                      23.00     23.00     23.00      0.01         0.01
  87818                      23.00     23.00     23.00      0.01         0.01
  87819                      23.00     23.00     23.00      0.01         0.01
  87820                      23.00     23.00     23.00      0.01         0.01
  87821                       0.01      0.01     23.00      0.01         0.01
  87824                       0.01      0.01      8.15      0.01         0.01
  87825                       8.14      8.14     23.00      0.01         0.01
  87826                      23.00     23.00     23.00      0.01         0.01
  87827                      23.00     23.00     23.00      0.01         0.56
  87828                      23.00     23.00     23.00      0.01         0.01
  87829                      23.00     23.00     23.00      0.01         0.01
  87830                      23.00     23.00     23.00      0.01         0.58
  87831                      23.00     23.00     23.00      0.01         0.01
  87832                      23.00     23.00     23.00      0.01         0.01
  87833                      23.00     23.00     23.00      0.01         0.01
  87834                      23.00     23.00     23.00      0.01         0.01
  87835                      23.00     23.00     23.00      0.01         0.01
  87836                      23.00     23.00     23.00      0.01         0.01
  87836-2                    23.00     23.00     23.00      0.01         0.01
  87837                      23.00     23.00     23.00      0.01         0.01
  87838                      23.00     23.00     23.00      0.01         0.01
  87839                      23.00     23.00     23.00      0.01         0.01
  87840                      23.00     23.00     23.00      0.01         0.01
  87841                      23.00     23.00     23.00      4.73         6.52
  87842                      23.00     23.00     23.00      0.01         0.01
  87843                      23.00     23.00     23.00      0.01         0.01
  87844                      23.00     23.00     23.00      0.01         0.01
  87845                      23.00     23.00     23.00      0.01         0.01
  87846                      23.00     23.00     23.00      0.20         0.97
  87847                      23.00     23.00     23.00      0.01         0.01
  87848                      23.00     23.00     23.00      0.01         0.01
  87849                      23.00     23.00     23.00      0.01         0.01
  87849-2                     0.01      0.01     14.92      0.01         0.01
  87849-3                     0.01      0.01     23.00      0.01         0.01
  87850                      18.55     18.67     22.44      3.67         4.07
  87850-2                    19.04     22.33     19.37      0.01         2.90
  87850-3                    17.35     19.37     18.67      0.01         0.11
  87852                      22.88     22.99     22.88      0.32         7.40
  92325                       0.01      0.01     15.94      0.01         0.01
  92325-2                    15.94     15.94     23.00      0.01         0.01
  92330-2                    15.18     15.18     15.18      4.16         7.13
  92522                      23.00     23.00     23.00     23.00        20.22
  95054                      23.00     23.00     23.00      0.01         0.01
  95139                       0.01      0.01      0.37      0.01         0.01
  95144                       0.01      0.01     23.00      0.01         0.01
  95149                       0.01      0.01     23.00      0.01         0.01
  95172                       0.01      0.01      0.37      0.01         0.01
  95248                       0.01      0.01     23.00      0.01         0.01
  95249                      23.00     23.00     23.00      0.01         0.01
  95308                      23.00     23.00     23.00      0.01         0.01
  95308-2                    23.00     23.00     23.00      0.01         0.01
  96200                      23.00     23.00     23.00     22.97        19.98
  96200_2                    23.00     23.00     23.00      0.01         2.88
  96557                      23.00     23.00     23.00      0.01         0.01
  96558                      23.00     23.00     23.00      0.01         0.01
  96559                      23.00     23.00     23.00      0.01         0.01
  96560                      23.00     23.00     23.00      0.01         0.01
  97160                       0.01      0.01      8.80      0.01         0.01
  97161                       0.01      0.01      8.80     11.80         0.01
  97162                       0.01      0.01     23.00      0.01         0.01
  97163                      23.00     23.00     23.00      0.01         0.01
  97164                       0.01      0.01     23.00      0.01         0.01
  97165                      21.95     21.95     22.99      7.00         0.01
  97166                      23.00     23.00     23.00      0.01         8.89
  97168                      23.00     23.00     23.00      0.01         4.72
  97169                      23.00     23.00     23.00      0.01         8.88
  97175                       0.01      0.01     23.00      0.01         0.01
  97176                      23.00     23.00     23.00      0.01         0.01
  97177                      23.00     23.00     23.00      0.01         0.01
  97177-97178                23.00     23.00     23.00      0.01         0.35
  97178                      23.00     23.00     23.00      0.01         4.29
  97179                      22.99     22.99     23.00      0.01         0.01
  97180                      23.00     23.00     23.00      0.01         0.01
  97183                      23.00     23.00     23.00      0.01         0.01
  97274                      23.00     23.00     23.00      0.01         0.01
  97275                      23.00     23.00     23.00      0.01         0.01
  97276                      23.00     23.00     23.00      0.01         0.01
  97277                      23.00     23.00     23.00      0.01         4.89
  97279                       0.01      0.01     22.98      0.01         0.01
  97280                      23.00     23.00     23.00      0.01         0.01
  97281                      23.00     23.00     23.00      0.01         0.01
  97321                      23.00     23.00     23.00      0.01         0.01
  97322                      23.00     23.00     23.00      0.01         0.01
  97323                      23.00     23.00     23.00      0.01         0.01
  97324                      23.00     23.00     23.00      0.01         0.01
  97331                      23.00     23.00     23.00      0.01         0.01
  97332                      22.99     22.99     22.99      0.01         0.01
  97424                      23.00     23.00     23.00      0.01         0.01
  97425                      23.00     23.00     23.00      0.01         0.01
  97426                      23.00     23.00     23.00      0.01         0.01
  97430                       0.88      0.88     23.00      0.01         0.01
  97430-2                     0.75      0.88      0.75     22.38         0.55
  97430-3                     0.01      0.75      0.01     23.00         0.01
  97431                      23.00     23.00     23.00      0.01         0.01
  97431-2                    23.00     23.00     23.00      0.01         0.01
  97432                      23.00     23.00     23.00      0.01         0.01
  97436                      23.00     23.00     23.00      0.01         0.01
  97732                      23.00     23.00     23.00      0.01         0.01
  97733                      22.99     22.99     23.00      0.01         0.01
  97734                      22.99     23.00     22.99      2.79         0.03
  97735                      23.00     23.00     23.00      0.01         0.01
  97736                      23.00     23.00     23.00      0.62         0.02
  97737                       0.01      0.01     23.00      0.01         0.01
  98855                       0.01      0.01     23.00      0.01         0.01
  98857                       0.01      0.01     23.00      0.01         0.01
  99207                      23.00     23.00     23.00      0.01         0.01
  99208                       0.01      0.01     23.00      0.01         0.01
  99210                       0.01      0.01     23.00      0.01         0.01
  99211                       0.01      0.01     23.00      0.60         0.01
  RM-100-01                  18.80     18.80     23.00     12.81        12.75
  RM-100-02                   0.01      0.01     23.00      0.01         0.01
  SELFS-PT-DUMMY-EFFLUENT-MAIN       23.00     23.00     23.00      0.01         0.01
  
  
  ***************
  Pumping Summary
  ***************
  
  ---------------------------------------------------------------------------------------------------------
                                                  Min       Avg       Max     Total     Power    % Time Off
                        Percent   Number of      Flow      Flow      Flow    Volume     Usage    Pump Curve
  Pump                 Utilized   Start-Ups       LPS       LPS       LPS  10^6 ltr     Kw-hr    Low   High
  ---------------------------------------------------------------------------------------------------------
  BB-PS-1                 27.12         196      0.00     11.80     12.34     0.540     26.68    0.0    0.0
  BB-PS-2                  0.00           0      0.00      0.00      0.00     0.000      0.00    0.0    0.0
  BB-PS-3                  0.00           0      0.00      0.00      0.00     0.000      0.00    0.0    0.0
  SB-PS1-1                28.53        6192      0.00     19.61     23.91     0.930     26.07    0.0    0.0
  SB-PS1-2                20.41        6193      0.00     36.37     46.48     1.241     37.20    0.0    0.0
  SB-PS2-1                 0.00           0      0.00      0.00      0.00     0.000      0.00    0.0    0.0
  SB-PS2-2                42.52       15330      0.00     73.93     93.04     5.267    527.98    0.0    0.0
  SELFS-PT-EFFLUENT-PS-1    35.81         876      0.00    129.89    130.00     7.872   1227.16    0.0   99.4
  SELFS-PT-EFFLUENT-PS-2     0.70          27      0.00    126.71    130.00     0.149     39.73    0.0   74.3
  SELFS-PT-EFFLUENT-PS-3     0.00           0      0.00      0.00      0.00     0.000      0.00    0.0    0.0
  

  Analysis begun on:  Fri Nov 29 13:39:49 2019
  Analysis ended on:  Fri Nov 29 13:41:24 2019
  Total elapsed time: 00:01:35