
  EPA STORM WATER MANAGEMENT MODEL - VERSION 5.1 (Build 5.1.013)
  --------------------------------------------------------------

  WARNING 01: wet weather time step reduced to recording interval for Rain Gage DESIGNSTORM
  WARNING 04: minimum elevation drop used for Conduit 10.16_OPENCHANNEL
  WARNING 04: minimum elevation drop used for Conduit 192ND_STREET
  WARNING 04: minimum elevation drop used for Conduit 3009L1
  WARNING 04: minimum elevation drop used for Conduit 4.4_CHANNEL
  WARNING 04: minimum elevation drop used for Conduit CDT-527
  WARNING 04: minimum elevation drop used for Conduit DUCK_LAKE_TRAIL
  WARNING 04: minimum elevation drop used for Conduit KERBER_BLVD
  WARNING 04: minimum elevation drop used for Conduit LL-10.13_OUTLET
  WARNING 04: minimum elevation drop used for Conduit LL-8.1A_ORIFICE
  WARNING 04: minimum elevation drop used for Conduit MH4_7.3L2
  WARNING 04: minimum elevation drop used for Conduit OUTLET_4_CALIBRATION
  WARNING 04: minimum elevation drop used for Conduit PURG_L2
  WARNING 04: minimum elevation drop used for Conduit PURG_L3
  WARNING 04: minimum elevation drop used for Conduit PURG_L4
  WARNING 04: minimum elevation drop used for Conduit PURG_OUTLET
  WARNING 04: minimum elevation drop used for Conduit TARTAN_ROAD
  WARNING 02: maximum depth increased for Node 10.16_OUTLET_CHANNEL
  WARNING 02: maximum depth increased for Node 9_1_B
  WARNING 02: maximum depth increased for Node 9_1_CHANNEL1
  WARNING 02: maximum depth increased for Node 9_1_OUT
  WARNING 02: maximum depth increased for Node DS_DELLROAD
  WARNING 02: maximum depth increased for Node DS_TOWNLINEROAD
  WARNING 02: maximum depth increased for Node JCT-90
  WARNING 02: maximum depth increased for Node LL-10.16_MH3
  WARNING 02: maximum depth increased for Node LL-10.17_INFLOW
  WARNING 02: maximum depth increased for Node LL-10.9_CHANNEL
  WARNING 02: maximum depth increased for Node LL-3.2_CHANNEL
  WARNING 02: maximum depth increased for Node LL-3.2_CHANNEL1
  WARNING 02: maximum depth increased for Node LL-6.6_2
  WARNING 02: maximum depth increased for Node LL-6.6_3
  WARNING 02: maximum depth increased for Node LL-8.1DIVERSIONCHANNEL
  WARNING 02: maximum depth increased for Node LOTUSLAKEOUTLET_FORCALIBRATION
  WARNING 02: maximum depth increased for Node POND3.1_OUTFALL
  WARNING 02: maximum depth increased for Node PURG13A
  WARNING 02: maximum depth increased for Node PURG13B
  WARNING 02: maximum depth increased for Node PURG14_C
  WARNING 02: maximum depth increased for Node PURGATORY_10
  WARNING 02: maximum depth increased for Node PURGATORY_10_A
  WARNING 02: maximum depth increased for Node PURGATORY_10_B
  WARNING 02: maximum depth increased for Node PURGATORY_11
  WARNING 02: maximum depth increased for Node PURGATORY_11_A
  WARNING 02: maximum depth increased for Node PURGATORY_11_B
  WARNING 02: maximum depth increased for Node PURGATORY_5
  WARNING 02: maximum depth increased for Node PURGATORY_6
  WARNING 02: maximum depth increased for Node PURGATORY_7
  WARNING 02: maximum depth increased for Node PURGATORY_8
  WARNING 02: maximum depth increased for Node PURGATORY_9
  WARNING 02: maximum depth increased for Node PURG_DS_DUCK
  WARNING 02: maximum depth increased for Node PURG_US_DELL
  WARNING 02: maximum depth increased for Node PURG_US_DUCK
  WARNING 02: maximum depth increased for Node US_KERBER_CULVERT
  WARNING 02: maximum depth increased for Node US_TOWNLINE
  WARNING 02: maximum depth increased for Node US_TOWNLINEROAD
  
  *********************************************************
  NOTE: The summary statistics displayed in this report are
  based on results found at every computational time step,  
  not just on results from each reporting time step.
  *********************************************************
  
  ****************
  Analysis Options
  ****************
  Flow Units ............... CFS
  Process Models:
    Rainfall/Runoff ........ YES
    RDII ................... NO
    Snowmelt ............... NO
    Groundwater ............ NO
    Flow Routing ........... YES
    Ponding Allowed ........ NO
    Water Quality .......... NO
  Infiltration Method ...... HORTON
  Flow Routing Method ...... DYNWAVE
  Surcharge Method ......... EXTRAN
  Starting Date ............ 05/01/2003 00:00:00
  Ending Date .............. 06/01/2003 23:00:00
  Antecedent Dry Days ...... 5.0
  Report Time Step ......... 00:15:00
  Wet Time Step ............ 00:15:00
  Dry Time Step ............ 23:00:00
  Routing Time Step ........ 10.00 sec
  Variable Time Step ....... YES
  Maximum Trials ........... 8
  Number of Threads ........ 8
  Head Tolerance ........... 0.005000 ft
  
  
  **************************        Volume         Depth
  Runoff Quantity Continuity     acre-feet        inches
  **************************     ---------       -------
  Total Precipitation ......         0.000         0.000
  Evaporation Loss .........         0.000         0.000
  Infiltration Loss ........         0.000         0.000
  Surface Runoff ...........         0.000         0.000
  Final Storage ............         0.000         0.000
  Continuity Error (%) .....         0.000
  
  
  **************************        Volume        Volume
  Flow Routing Continuity        acre-feet      10^6 gal
  **************************     ---------     ---------
  Dry Weather Inflow .......         0.000         0.000
  Wet Weather Inflow .......         0.000         0.000
  Groundwater Inflow .......         0.000         0.000
  RDII Inflow ..............         0.000         0.000
  External Inflow ..........         0.000         0.000
  External Outflow .........         0.000         0.000
  Flooding Loss ............         0.000         0.000
  Evaporation Loss .........         0.000         0.000
  Exfiltration Loss ........         0.000         0.000
  Initial Stored Volume ....      3505.090      1142.186
  Final Stored Volume ......      3505.090      1142.186
  Continuity Error (%) .....         0.000
  
  
  ***************************
  Time-Step Critical Elements
  ***************************
  None
  
  
  ********************************
  Highest Flow Instability Indexes
  ********************************
  All links are stable.
  
  
  ***************************
  Subcatchment Runoff Summary
  ***************************
  
  ------------------------------------------------------------------------------------------------------------------------------
                            Total      Total      Total      Total     Imperv       Perv      Total       Total     Peak  Runoff
                           Precip      Runon       Evap      Infil     Runoff     Runoff     Runoff      Runoff   Runoff   Coeff
  Subcatchment                 in         in         in         in         in         in         in    10^6 gal      CFS
  ------------------------------------------------------------------------------------------------------------------------------
  LL-6.5A                    0.00       0.00       0.00       0.00       0.00       0.00       0.00        0.00     0.00   0.000
  LL-6.5B                    0.00       0.00       0.00       0.00       0.00       0.00       0.00        0.00     0.00   0.000
  LL-A1.1                    0.00       0.00       0.00       0.00       0.00       0.00       0.00        0.00     0.00   0.000
  LL-A1.2                    0.00       0.00       0.00       0.00       0.00       0.00       0.00        0.00     0.00   0.000
  LL-A1.3                    0.00       0.00       0.00       0.00       0.00       0.00       0.00        0.00     0.00   0.000
  LL-A1.4                    0.00       0.00       0.00       0.00       0.00       0.00       0.00        0.00     0.00   0.000
  LL-A1.5                    0.00       0.00       0.00       0.00       0.00       0.00       0.00        0.00     0.00   0.000
  LL-A1.6                    0.00       0.00       0.00       0.00       0.00       0.00       0.00        0.00     0.00   0.000
  LL-A10.1                   0.00       0.00       0.00       0.00       0.00       0.00       0.00        0.00     0.00   0.000
  LL-A10.10                  0.00       0.00       0.00       0.00       0.00       0.00       0.00        0.00     0.00   0.000
  LL-A10.11                  0.00       0.00       0.00       0.00       0.00       0.00       0.00        0.00     0.00   0.000
  LL-A10.13                  0.00       0.00       0.00       0.00       0.00       0.00       0.00        0.00     0.00   0.000
  LL-A10.15                  0.00       0.00       0.00       0.00       0.00       0.00       0.00        0.00     0.00   0.000
  LL-A10.16                  0.00       0.00       0.00       0.00       0.00       0.00       0.00        0.00     0.00   0.000
  LL-A10.16A                 0.00       0.00       0.00       0.00       0.00       0.00       0.00        0.00     0.00   0.000
  LL-A10.17                  0.00       0.00       0.00       0.00       0.00       0.00       0.00        0.00     0.00   0.000
  LL-A10.2                   0.00       0.00       0.00       0.00       0.00       0.00       0.00        0.00     0.00   0.000
  LL-A10.4                   0.00       0.00       0.00       0.00       0.00       0.00       0.00        0.00     0.00   0.000
  LL-A10.6                   0.00       0.00       0.00       0.00       0.00       0.00       0.00        0.00     0.00   0.000
  LL-A10.7                   0.00       0.00       0.00       0.00       0.00       0.00       0.00        0.00     0.00   0.000
  LL-A10.8                   0.00       0.00       0.00       0.00       0.00       0.00       0.00        0.00     0.00   0.000
  LL-A10.9                   0.00       0.00       0.00       0.00       0.00       0.00       0.00        0.00     0.00   0.000
  LL-A10.9A                  0.00       0.00       0.00       0.00       0.00       0.00       0.00        0.00     0.00   0.000
  LL-A11.1                   0.00       0.00       0.00       0.00       0.00       0.00       0.00        0.00     0.00   0.000
  LL-A11.2                   0.00       0.00       0.00       0.00       0.00       0.00       0.00        0.00     0.00   0.000
  LL-A2.2                    0.00       0.00       0.00       0.00       0.00       0.00       0.00        0.00     0.00   0.000
  LL-A2.3                    0.00       0.00       0.00       0.00       0.00       0.00       0.00        0.00     0.00   0.000
  LL-A2.4                    0.00       0.00       0.00       0.00       0.00       0.00       0.00        0.00     0.00   0.000
  LL-A2.5                    0.00       0.00       0.00       0.00       0.00       0.00       0.00        0.00     0.00   0.000
  LL-A3.1                    0.00       0.00       0.00       0.00       0.00       0.00       0.00        0.00     0.00   0.000
  LL-A3.2                    0.00       0.00       0.00       0.00       0.00       0.00       0.00        0.00     0.00   0.000
  LL-A3.2A                   0.00       0.00       0.00       0.00       0.00       0.00       0.00        0.00     0.00   0.000
  LL-A3.2B                   0.00       0.00       0.00       0.00       0.00       0.00       0.00        0.00     0.00   0.000
  LL-A3.2C                   0.00       0.00       0.00       0.00       0.00       0.00       0.00        0.00     0.00   0.000
  LL-A4.1                    0.00       0.00       0.00       0.00       0.00       0.00       0.00        0.00     0.00   0.000
  LL-A4.2                    0.00       0.00       0.00       0.00       0.00       0.00       0.00        0.00     0.00   0.000
  LL-A4.3                    0.00       0.00       0.00       0.00       0.00       0.00       0.00        0.00     0.00   0.000
  LL-A4.4                    0.00       0.00       0.00       0.00       0.00       0.00       0.00        0.00     0.00   0.000
  LL-A4.4A                   0.00       0.00       0.00       0.00       0.00       0.00       0.00        0.00     0.00   0.000
  LL-A5.1                    0.00       0.00       0.00       0.00       0.00       0.00       0.00        0.00     0.00   0.000
  LL-A5.1A                   0.00       0.00       0.00       0.00       0.00       0.00       0.00        0.00     0.00   0.000
  LL-A5.1B                   0.00       0.00       0.00       0.00       0.00       0.00       0.00        0.00     0.00   0.000
  LL-A5.2                    0.00       0.00       0.00       0.00       0.00       0.00       0.00        0.00     0.00   0.000
  LL-A5.3                    0.00       0.00       0.00       0.00       0.00       0.00       0.00        0.00     0.00   0.000
  LL-A6.1                    0.00       0.00       0.00       0.00       0.00       0.00       0.00        0.00     0.00   0.000
  LL-A6.1B                   0.00       0.00       0.00       0.00       0.00       0.00       0.00        0.00     0.00   0.000
  LL-A6.2                    0.00       0.00       0.00       0.00       0.00       0.00       0.00        0.00     0.00   0.000
  LL-A6.2A                   0.00       0.00       0.00       0.00       0.00       0.00       0.00        0.00     0.00   0.000
  LL-A6.3                    0.00       0.00       0.00       0.00       0.00       0.00       0.00        0.00     0.00   0.000
  LL-A6.3A                   0.00       0.00       0.00       0.00       0.00       0.00       0.00        0.00     0.00   0.000
  LL-A6.4                    0.00       0.00       0.00       0.00       0.00       0.00       0.00        0.00     0.00   0.000
  LL-A6.5                    0.00       0.00       0.00       0.00       0.00       0.00       0.00        0.00     0.00   0.000
  LL-A6.6                    0.00       0.00       0.00       0.00       0.00       0.00       0.00        0.00     0.00   0.000
  LL-A6.6A                   0.00       0.00       0.00       0.00       0.00       0.00       0.00        0.00     0.00   0.000
  LL-A6.7                    0.00       0.00       0.00       0.00       0.00       0.00       0.00        0.00     0.00   0.000
  LL-A7.1                    0.00       0.00       0.00       0.00       0.00       0.00       0.00        0.00     0.00   0.000
  LL-A7.2                    0.00       0.00       0.00       0.00       0.00       0.00       0.00        0.00     0.00   0.000
  LL-A7.3                    0.00       0.00       0.00       0.00       0.00       0.00       0.00        0.00     0.00   0.000
  LL-A7.4                    0.00       0.00       0.00       0.00       0.00       0.00       0.00        0.00     0.00   0.000
  LL-A7.5                    0.00       0.00       0.00       0.00       0.00       0.00       0.00        0.00     0.00   0.000
  LL-A8.1                    0.00       0.00       0.00       0.00       0.00       0.00       0.00        0.00     0.00   0.000
  LL-A8.1A                   0.00       0.00       0.00       0.00       0.00       0.00       0.00        0.00     0.00   0.000
  LL-A8.2                    0.00       0.00       0.00       0.00       0.00       0.00       0.00        0.00     0.00   0.000
  LL-A9.1                    0.00       0.00       0.00       0.00       0.00       0.00       0.00        0.00     0.00   0.000
  LL-A9.2                    0.00       0.00       0.00       0.00       0.00       0.00       0.00        0.00     0.00   0.000
  LL-P10.16B                 0.00       0.00       0.00       0.00       0.00       0.00       0.00        0.00     0.00   0.000
  LOTUSLAKE                  0.00       0.00       0.00       0.00       0.00       0.00       0.00        0.00     0.00   0.000
  PURG_1                     0.00       0.00       0.00       0.00       0.00       0.00       0.00        0.00     0.00   0.000
  PURG_10                    0.00       0.00       0.00       0.00       0.00       0.00       0.00        0.00     0.00   0.000
  PURG_12                    0.00       0.00       0.00       0.00       0.00       0.00       0.00        0.00     0.00   0.000
  PURG_2                     0.00       0.00       0.00       0.00       0.00       0.00       0.00        0.00     0.00   0.000
  PURG_3                     0.00       0.00       0.00       0.00       0.00       0.00       0.00        0.00     0.00   0.000
  PURG_4                     0.00       0.00       0.00       0.00       0.00       0.00       0.00        0.00     0.00   0.000
  PURG_5                     0.00       0.00       0.00       0.00       0.00       0.00       0.00        0.00     0.00   0.000
  PURG_6                     0.00       0.00       0.00       0.00       0.00       0.00       0.00        0.00     0.00   0.000
  PURG_7                     0.00       0.00       0.00       0.00       0.00       0.00       0.00        0.00     0.00   0.000
  PURG_8                     0.00       0.00       0.00       0.00       0.00       0.00       0.00        0.00     0.00   0.000
  PURG_9                     0.00       0.00       0.00       0.00       0.00       0.00       0.00        0.00     0.00   0.000
  PUR_11                     0.00       0.00       0.00       0.00       0.00       0.00       0.00        0.00     0.00   0.000
  SUB-632                    0.00       0.00       0.00       0.00       0.00       0.00       0.00        0.00     0.00   0.000
  
  
  ******************
  Node Depth Summary
  ******************
  
  ---------------------------------------------------------------------------------
                                 Average  Maximum  Maximum  Time of Max    Reported
                                   Depth    Depth      HGL   Occurrence   Max Depth
  Node                 Type         Feet     Feet     Feet  days hr:min        Feet
  ---------------------------------------------------------------------------------
  10.16_CHANNEL1       JUNCTION  -nan(ind)     0.00   935.99     0  00:00        0.00
  10.16_OUTLET_CHANNEL JUNCTION  -nan(ind)     0.00   917.54     0  00:00        0.00
  2533                 JUNCTION  -nan(ind)     0.00   987.87     0  00:00        0.00
  2534                 JUNCTION  -nan(ind)     0.00   985.80     0  00:00        0.00
  2537                 JUNCTION  -nan(ind)     0.00   984.74     0  00:00        0.00
  2541                 JUNCTION  -nan(ind)     0.00   979.26     0  00:00        0.00
  2542                 JUNCTION  -nan(ind)     0.00   981.51     0  00:00        0.00
  2558                 JUNCTION  -nan(ind)     0.00   982.76     0  00:00        0.00
  2560                 JUNCTION  -nan(ind)     0.00   981.19     0  00:00        0.00
  2561                 JUNCTION  -nan(ind)     0.00   981.05     0  00:00        0.00
  2582                 JUNCTION  -nan(ind)     0.00   910.10     0  00:00        0.00
  2583                 JUNCTION  -nan(ind)     0.00   910.75     0  00:00        0.00
  2585                 JUNCTION  -nan(ind)     0.00   906.35     0  00:00        0.00
  2586                 JUNCTION  -nan(ind)     0.00   904.91     0  00:00        0.00
  3008                 JUNCTION  -nan(ind)     0.00   954.08     0  00:00        0.00
  3009                 JUNCTION  -nan(ind)     0.00   950.13     0  00:00        0.00
  3011                 JUNCTION  -nan(ind)     0.00   973.56     0  00:00        0.00
  3012                 JUNCTION  -nan(ind)     0.00   969.69     0  00:00        0.00
  3069                 JUNCTION  -nan(ind)     0.00   928.95     0  00:00        0.00
  3085                 JUNCTION  -nan(ind)     0.00   949.34     0  00:00        0.00
  3168                 JUNCTION  -nan(ind)     0.00   961.90     0  00:00        0.00
  3170                 JUNCTION  -nan(ind)     0.00   967.59     0  00:00        0.00
  3171                 JUNCTION  -nan(ind)     0.00   968.32     0  00:00        0.00
  3173                 JUNCTION  -nan(ind)     0.00   972.82     0  00:00        0.00
  3174                 JUNCTION  -nan(ind)     0.00   971.34     0  00:00        0.00
  3177                 JUNCTION  -nan(ind)     0.00   974.40     0  00:00        0.00
  3181                 JUNCTION  -nan(ind)     0.00   966.22     0  00:00        0.00
  3182                 JUNCTION  -nan(ind)     0.00   964.74     0  00:00        0.00
  3183                 JUNCTION  -nan(ind)     0.00   953.89     0  00:00        0.00
  3193                 JUNCTION  -nan(ind)     0.00   916.20     0  00:00        0.00
  3531                 JUNCTION  -nan(ind)     0.00   926.55     0  00:00        0.00
  3532                 JUNCTION  -nan(ind)     0.00   933.86     0  00:00        0.00
  3533                 JUNCTION  -nan(ind)     0.00   934.51     0  00:00        0.00
  3534                 JUNCTION  -nan(ind)     0.00   936.78     0  00:00        0.00
  3535                 JUNCTION  -nan(ind)     0.00   938.43     0  00:00        0.00
  3536                 JUNCTION  -nan(ind)     0.00   918.34     0  00:00        0.00
  3537                 JUNCTION  -nan(ind)     0.00   916.57     0  00:00        0.00
  4.3_OUTFALL          JUNCTION  -nan(ind)     0.00   900.00     0  00:00        0.00
  4.4MARSH_OUT1        JUNCTION  -nan(ind)     0.00   896.57     0  00:00        0.00
  5107                 JUNCTION  -nan(ind)     0.00   902.29     0  00:00        0.00
  5109                 JUNCTION  -nan(ind)     0.00   901.60     0  00:00        0.00
  5114                 JUNCTION  -nan(ind)     0.00   900.76     0  00:00        0.00
  5115                 JUNCTION  -nan(ind)     0.00   901.21     0  00:00        0.00
  5130                 JUNCTION  -nan(ind)     0.00   898.76     0  00:00        0.00
  5131                 JUNCTION  -nan(ind)     0.00   898.82     0  00:00        0.00
  5132                 JUNCTION  -nan(ind)     0.00   899.31     0  00:00        0.00
  5133                 JUNCTION  -nan(ind)     0.00   899.58     0  00:00        0.00
  5134                 JUNCTION  -nan(ind)     0.00   900.14     0  00:00        0.00
  5137                 JUNCTION  -nan(ind)     0.00   899.79     0  00:00        0.00
  5139                 JUNCTION  -nan(ind)     0.00   901.69     0  00:00        0.00
  5140                 JUNCTION  -nan(ind)     0.00   902.24     0  00:00        0.00
  5144                 JUNCTION  -nan(ind)     0.00   907.72     0  00:00        0.00
  5145                 JUNCTION  -nan(ind)     0.00   907.41     0  00:00        0.00
  5146                 JUNCTION  -nan(ind)     0.00   915.38     0  00:00        0.00
  5147                 JUNCTION  -nan(ind)     0.00   923.11     0  00:00        0.00
  5149                 JUNCTION  -nan(ind)     0.00   935.26     0  00:00        0.00
  5150                 JUNCTION  -nan(ind)     0.00   996.28     0  00:00        0.00
  5151                 JUNCTION  -nan(ind)     0.00   958.48     0  00:00        0.00
  5152                 JUNCTION  -nan(ind)     0.00   909.79     0  00:00        0.00
  5153                 JUNCTION  -nan(ind)     0.00   900.96     0  00:00        0.00
  5157                 JUNCTION  -nan(ind)     0.00   999.26     0  00:00        0.00
  5158                 JUNCTION  -nan(ind)     0.00   997.01     0  00:00        0.00
  5177                 JUNCTION  -nan(ind)     0.00   941.44     0  00:00        0.00
  5184                 JUNCTION  -nan(ind)     0.00   945.12     0  00:00        0.00
  5185                 JUNCTION  -nan(ind)     0.00   944.19     0  00:00        0.00
  5186                 JUNCTION  -nan(ind)     0.00   942.57     0  00:00        0.00
  5187                 JUNCTION  -nan(ind)     0.00   946.24     0  00:00        0.00
  5188                 JUNCTION  -nan(ind)     0.00   947.40     0  00:00        0.00
  5189                 JUNCTION  -nan(ind)     0.00   948.23     0  00:00        0.00
  5190                 JUNCTION  -nan(ind)     0.00   948.90     0  00:00        0.00
  5261                 JUNCTION  -nan(ind)     0.00   995.15     0  00:00        0.00
  5262                 JUNCTION  -nan(ind)     0.00   994.82     0  00:00        0.00
  5272                 JUNCTION  -nan(ind)     0.00   964.23     0  00:00        0.00
  5276                 JUNCTION  -nan(ind)     0.00   966.23     0  00:00        0.00
  5279                 JUNCTION  -nan(ind)     0.00   962.88     0  00:00        0.00
  5281                 JUNCTION  -nan(ind)     0.00   963.23     0  00:00        0.00
  5287                 JUNCTION  -nan(ind)     0.00   961.10     0  00:00        0.00
  5289                 JUNCTION  -nan(ind)     0.00   954.26     0  00:00        0.00
  5290                 JUNCTION  -nan(ind)     0.00   954.72     0  00:00        0.00
  5291                 JUNCTION  -nan(ind)     0.00   958.83     0  00:00        0.00
  5306                 JUNCTION  -nan(ind)     0.00   967.98     0  00:00        0.00
  5308                 JUNCTION  -nan(ind)     0.00   968.95     0  00:00        0.00
  5311                 JUNCTION  -nan(ind)     0.00   973.37     0  00:00        0.00
  5312                 JUNCTION  -nan(ind)     0.00   974.21     0  00:00        0.00
  5314                 JUNCTION  -nan(ind)     0.00   976.96     0  00:00        0.00
  5315                 JUNCTION  -nan(ind)     0.00   977.83     0  00:00        0.00
  5385                 JUNCTION  -nan(ind)     0.00   901.86     0  00:00        0.00
  5388                 JUNCTION  -nan(ind)     0.00   898.24     0  00:00        0.00
  5391                 JUNCTION  -nan(ind)     0.00   905.45     0  00:00        0.00
  5400                 JUNCTION  -nan(ind)     0.00   911.09     0  00:00        0.00
  5401                 JUNCTION  -nan(ind)     0.00   910.37     0  00:00        0.00
  6433                 JUNCTION  -nan(ind)     0.00   978.04     0  00:00        0.00
  6434                 JUNCTION  -nan(ind)     0.00   984.54     0  00:00        0.00
  7553                 JUNCTION  -nan(ind)     0.00   995.00     0  00:00        0.00
  8146                 JUNCTION  -nan(ind)     0.00   921.41     0  00:00        0.00
  8191                 JUNCTION  -nan(ind)     0.00   896.52     0  00:00        0.00
  9_1_B                JUNCTION  -nan(ind)     0.00   922.08     0  00:00        0.00
  9_1_CHANNEL1         JUNCTION  -nan(ind)     0.00   931.79     0  00:00        0.00
  9_1_OUT              JUNCTION  -nan(ind)     0.00   944.06     0  00:00        0.00
  9_2_CHANNEL1         JUNCTION  -nan(ind)     0.00   908.75     0  00:00        0.00
  DS_DELLROAD          JUNCTION  -nan(ind)     0.00   879.12     0  00:00        0.00
  DS_KERBERCULVERT     JUNCTION  -nan(ind)     0.00   935.99     0  00:00        0.00
  DS_TOWNLINEROAD      JUNCTION  -nan(ind)     0.00   863.88     0  00:00        0.00
  JCT-72               JUNCTION  -nan(ind)     0.00   916.20     0  00:00        0.00
  JCT-90               JUNCTION  -nan(ind)     0.00   879.00     0  00:00        0.00
  KERBER_CULVERT_1     JUNCTION  -nan(ind)     0.00   936.11     0  00:00        0.00
  LL-10.16_MH2         JUNCTION  -nan(ind)     0.00   916.83     0  00:00        0.00
  LL-10.16_MH3         JUNCTION  -nan(ind)     0.00   915.03     0  00:00        0.00
  LL-10.16_OUTLETPIPE  JUNCTION  -nan(ind)     0.00   916.06     0  00:00        0.00
  LL-10.17_INFLOW      JUNCTION  -nan(ind)     0.00   898.00     0  00:00        0.00
  LL-10.9_CHANNEL      JUNCTION  -nan(ind)     0.00   948.19     0  00:00        0.00
  LL-3.2CHANNEL3       JUNCTION  -nan(ind)     0.00   899.55     0  00:00        0.00
  LL-3.2_CHANNEL       JUNCTION  -nan(ind)     0.00   903.38     0  00:00        0.00
  LL-3.2_CHANNEL1      JUNCTION  -nan(ind)     0.00   907.17     0  00:00        0.00
  LL-6.6_1             JUNCTION  -nan(ind)     0.00   900.35     0  00:00        0.00
  LL-6.6_2             JUNCTION  -nan(ind)     0.00   916.26     0  00:00        0.00
  LL-6.6_3             JUNCTION  -nan(ind)     0.00   905.64     0  00:00        0.00
  LL-7.5_CHANNEL       JUNCTION  -nan(ind)     0.00   908.00     0  00:00        0.00
  LL-8.1B_CHANNEL      JUNCTION  -nan(ind)     0.00   911.00     0  00:00        0.00
  LL-8.1B_OUTLET       JUNCTION  -nan(ind)     0.00   902.04     0  00:00        0.00
  LL-8.1DIVERSIONCHANNEL JUNCTION  -nan(ind)     0.00   910.35     0  00:00        0.00
  LL-8.1_DIVERSION     JUNCTION  -nan(ind)     0.00   919.38     0  00:00        0.00
  LL-8.1_MH1           JUNCTION  -nan(ind)     0.00   918.50     0  00:00        0.00
  LL-A10.16_OUTLET     JUNCTION  -nan(ind)     0.00   918.08     0  00:00        0.00
  LL-P5.1A_OUT         JUNCTION  -nan(ind)     0.00   913.17     0  00:00        0.00
  LL-P6.1_CHANNEL      JUNCTION  -nan(ind)     0.00   896.76     0  00:00        0.00
  LL-P6.3_OUT_DS       JUNCTION  -nan(ind)     0.00   898.00     0  00:00        0.00
  LL_10.16-CHANNEL1    JUNCTION  -nan(ind)     0.00   908.36     0  00:00        0.00
  LL_10.16_CHANNEL2    JUNCTION  -nan(ind)     0.00   904.04     0  00:00        0.00
  LL_7.5_CHANNEL1      JUNCTION  -nan(ind)     0.00   901.82     0  00:00        0.00
  LL_8.1_DIVERSIONSTRUCTURE JUNCTION  -nan(ind)     0.00   918.38     0  00:00        0.00
  LL_OUTLET_DS         JUNCTION  -nan(ind)     0.00   891.58     0  00:00        0.00
  LOTUSLAKEOUTLET_FORCALIBRATION JUNCTION  -nan(ind)     0.00   895.00     0  00:00        0.00
  LOTUS_OUTLET_50FTDS  JUNCTION  -nan(ind)     0.00   889.84     0  00:00        0.00
  MARSH_OUT            JUNCTION  -nan(ind)     0.00   898.00     0  00:00        0.00
  MH1_7.3_LL           JUNCTION  -nan(ind)     0.00   943.10     0  00:00        0.00
  MH2_7.3_LL           JUNCTION  -nan(ind)     0.00   935.70     0  00:00        0.00
  MH3_7.3_LL           JUNCTION  -nan(ind)     0.00   929.90     0  00:00        0.00
  MH4_7.3_LL           JUNCTION  -nan(ind)     0.00   921.90     0  00:00        0.00
  POND3.1_OUTFALL      JUNCTION  -nan(ind)     0.00   911.76     0  00:00        0.00
  PURG13A              JUNCTION  -nan(ind)     0.00   865.47     0  00:00        0.00
  PURG13B              JUNCTION  -nan(ind)     0.00   864.99     0  00:00        0.00
  PURG13C              JUNCTION  -nan(ind)     0.00   864.56     0  00:00        0.00
  PURG14A              JUNCTION  -nan(ind)     0.00   864.21     0  00:00        0.00
  PURG14B              JUNCTION  -nan(ind)     0.00   864.31     0  00:00        0.00
  PURG14_C             JUNCTION  -nan(ind)     0.00   864.42     0  00:00        0.00
  PURGATORY_1          JUNCTION  -nan(ind)     0.00   892.60     0  00:00        0.00
  PURGATORY_10         JUNCTION  -nan(ind)     0.00   873.25     0  00:00        0.00
  PURGATORY_10_A       JUNCTION  -nan(ind)     0.00   872.05     0  00:00        0.00
  PURGATORY_10_B       JUNCTION  -nan(ind)     0.00   871.15     0  00:00        0.00
  PURGATORY_11         JUNCTION  -nan(ind)     0.00   870.50     0  00:00        0.00
  PURGATORY_11_A       JUNCTION  -nan(ind)     0.00   869.60     0  00:00        0.00
  PURGATORY_11_B       JUNCTION  -nan(ind)     0.00   868.62     0  00:00        0.00
  PURGATORY_12         JUNCTION  -nan(ind)     0.00   867.74     0  00:00        0.00
  PURGATORY_12_A       JUNCTION  -nan(ind)     0.00   867.10     0  00:00        0.00
  PURGATORY_12_B       JUNCTION  -nan(ind)     0.00   866.49     0  00:00        0.00
  PURGATORY_13         JUNCTION  -nan(ind)     0.00   865.92     0  00:00        0.00
  PURGATORY_14         JUNCTION  -nan(ind)     0.00   864.10     0  00:00        0.00
  PURGATORY_2          JUNCTION  -nan(ind)     0.00   890.00     0  00:00        0.00
  PURGATORY_3          JUNCTION  -nan(ind)     0.00   886.81     0  00:00        0.00
  PURGATORY_4          JUNCTION  -nan(ind)     0.00   887.09     0  00:00        0.00
  PURGATORY_5          JUNCTION  -nan(ind)     0.00   884.15     0  00:00        0.00
  PURGATORY_6          JUNCTION  -nan(ind)     0.00   883.49     0  00:00        0.00
  PURGATORY_7          JUNCTION  -nan(ind)     0.00   880.15     0  00:00        0.00
  PURGATORY_8          JUNCTION  -nan(ind)     0.00   879.12     0  00:00        0.00
  PURGATORY_9          JUNCTION  -nan(ind)     0.00   883.90     0  00:00        0.00
  PURGATORY_US_OUTLET  JUNCTION  -nan(ind)     0.00   894.00     0  00:00        0.00
  PURGOUTLET_CHANNEL   JUNCTION  -nan(ind)     0.00   894.44     0  00:00        0.00
  PURG_CHANNEL1        JUNCTION  -nan(ind)     0.00   888.19     0  00:00        0.00
  PURG_CHANNEL2        JUNCTION  -nan(ind)     0.00   881.66     0  00:00        0.00
  PURG_DS_DUCK         JUNCTION  -nan(ind)     0.00   883.49     0  00:00        0.00
  PURG_DS_TARTAN       JUNCTION  -nan(ind)     0.00   887.09     0  00:00        0.00
  PURG_TARTAN_50FTUS   JUNCTION  -nan(ind)     0.00   886.97     0  00:00        0.00
  PURG_US_DELL         JUNCTION  -nan(ind)     0.00   880.32     0  00:00        0.00
  PURG_US_DUCK         JUNCTION  -nan(ind)     0.00   884.47     0  00:00        0.00
  US_KERBER_CULVERT    JUNCTION  -nan(ind)     0.00   937.87     0  00:00        0.00
  US_TOWNLINE          JUNCTION  -nan(ind)     0.00   864.52     0  00:00        0.00
  US_TOWNLINEROAD      JUNCTION  -nan(ind)     0.00   864.52     0  00:00        0.00
  GW_OUTLET            OUTFALL   -nan(ind)     0.00     0.00     0  00:00        0.00
  PURG_OUTLET          OUTFALL   -nan(ind)     0.00   863.88     0  00:00        0.00
  LL-P1.1              STORAGE   -nan(ind)     0.00   992.00     0  00:00        0.00
  LL-P1.2              STORAGE   -nan(ind)     0.00   912.00     0  00:00        0.00
  LL-P1.5              STORAGE   -nan(ind)     0.00   897.00     0  00:00        0.00
  LL-P10.1             STORAGE   -nan(ind)     0.00   996.00     0  00:00        0.00
  LL-P10.11            STORAGE   -nan(ind)     0.00   948.00     0  00:00        0.00
  LL-P10.13            STORAGE   -nan(ind)     0.00   924.00     0  00:00        0.00
  LL-P10.15            STORAGE   -nan(ind)     0.00   949.00     0  00:00        0.00
  LL-P10.16            STORAGE   -nan(ind)     0.00   924.00     0  00:00        0.00
  LL-P10.16_OUTLET     STORAGE   -nan(ind)     0.00   916.06     0  00:00        0.00
  LL-P10.2             STORAGE   -nan(ind)     0.00   988.00     0  00:00        0.00
  LL-P10.4             STORAGE   -nan(ind)     0.00   970.00     0  00:00        0.00
  LL-P10.6             STORAGE   -nan(ind)     0.00   995.00     0  00:00        0.00
  LL-P10.7             STORAGE   -nan(ind)     0.00   992.00     0  00:00        0.00
  LL-P3.1              STORAGE   -nan(ind)     0.00   912.00     0  00:00        0.00
  LL-P4.2              STORAGE   -nan(ind)     0.00   897.00     0  00:00        0.00
  LL-P4.3              STORAGE   -nan(ind)     0.00   895.00     0  00:00        0.00
  LL-P4.4              STORAGE   -nan(ind)     0.00   900.00     0  00:00        0.00
  LL-P5.1A             STORAGE   -nan(ind)     0.00   917.50     0  00:00        0.00
  LL-P6.2              STORAGE   -nan(ind)     0.00   906.50     0  00:00        0.00
  LL-P6.3              STORAGE   -nan(ind)     0.00   894.00     0  00:00        0.00
  LL-P9.1              STORAGE   -nan(ind)     0.00   945.88     0  00:00        0.00
  LL_8.1A              STORAGE   -nan(ind)     0.00   912.30     0  00:00        0.00
  LL_8.1B              STORAGE   -nan(ind)     0.00   906.00     0  00:00        0.00
  LOTUS_LAKE           STORAGE   -nan(ind)     0.00   866.00     0  00:00        0.00
  
  
  *******************
  Node Inflow Summary
  *******************
  
  -------------------------------------------------------------------------------------------------
                                  Maximum  Maximum                  Lateral       Total        Flow
                                  Lateral    Total  Time of Max      Inflow      Inflow     Balance
                                   Inflow   Inflow   Occurrence      Volume      Volume       Error
  Node                 Type           CFS      CFS  days hr:min    10^6 gal    10^6 gal     Percent
  -------------------------------------------------------------------------------------------------
  10.16_CHANNEL1       JUNCTION      0.00     0.00     0  00:00           0           0       0.000 gal
  10.16_OUTLET_CHANNEL JUNCTION      0.00     0.00     0  00:00           0           0       0.000 gal
  2533                 JUNCTION      0.00     0.00     0  00:00           0           0       0.000 gal
  2534                 JUNCTION      0.00     0.00     0  00:00           0           0       0.000 gal
  2537                 JUNCTION      0.00     0.00     0  00:00           0           0       0.000 gal
  2541                 JUNCTION      0.00     0.00     0  00:00           0           0       0.000 gal
  2542                 JUNCTION      0.00     0.00     0  00:00           0           0       0.000 gal
  2558                 JUNCTION      0.00     0.00     0  00:00           0           0       0.000 gal
  2560                 JUNCTION      0.00     0.00     0  00:00           0           0       0.000 gal
  2561                 JUNCTION      0.00     0.00     0  00:00           0           0       0.000 gal
  2582                 JUNCTION      0.00     0.00     0  00:00           0           0       0.000 gal
  2583                 JUNCTION      0.00     0.00     0  00:00           0           0       0.000 gal
  2585                 JUNCTION      0.00     0.00     0  00:00           0           0       0.000 gal
  2586                 JUNCTION      0.00     0.00     0  00:00           0           0       0.000 gal
  3008                 JUNCTION      0.00     0.00     0  00:00           0           0       0.000 gal
  3009                 JUNCTION      0.00     0.00     0  00:00           0           0       0.000 gal
  3011                 JUNCTION      0.00     0.00     0  00:00           0           0       0.000 gal
  3012                 JUNCTION      0.00     0.00     0  00:00           0           0       0.000 gal
  3069                 JUNCTION      0.00     0.00     0  00:00           0           0       0.000 gal
  3085                 JUNCTION      0.00     0.00     0  00:00           0           0       0.000 gal
  3168                 JUNCTION      0.00     0.00     0  00:00           0           0       0.000 gal
  3170                 JUNCTION      0.00     0.00     0  00:00           0           0       0.000 gal
  3171                 JUNCTION      0.00     0.00     0  00:00           0           0       0.000 gal
  3173                 JUNCTION      0.00     0.00     0  00:00           0           0       0.000 gal
  3174                 JUNCTION      0.00     0.00     0  00:00           0           0       0.000 gal
  3177                 JUNCTION      0.00     0.00     0  00:00           0           0       0.000 gal
  3181                 JUNCTION      0.00     0.00     0  00:00           0           0       0.000 gal
  3182                 JUNCTION      0.00     0.00     0  00:00           0           0       0.000 gal
  3183                 JUNCTION      0.00     0.00     0  00:00           0           0       0.000 gal
  3193                 JUNCTION      0.00     0.00     0  00:00           0           0       0.000 gal
  3531                 JUNCTION      0.00     0.00     0  00:00           0           0       0.000 gal
  3532                 JUNCTION      0.00     0.00     0  00:00           0           0       0.000 gal
  3533                 JUNCTION      0.00     0.00     0  00:00           0           0       0.000 gal
  3534                 JUNCTION      0.00     0.00     0  00:00           0           0       0.000 gal
  3535                 JUNCTION      0.00     0.00     0  00:00           0           0       0.000 gal
  3536                 JUNCTION      0.00     0.00     0  00:00           0           0       0.000 gal
  3537                 JUNCTION      0.00     0.00     0  00:00           0           0       0.000 gal
  4.3_OUTFALL          JUNCTION      0.00     0.00     0  00:00           0           0       0.000 gal
  4.4MARSH_OUT1        JUNCTION      0.00     0.00     0  00:00           0           0       0.000 gal
  5107                 JUNCTION      0.00     0.00     0  00:00           0           0       0.000 gal
  5109                 JUNCTION      0.00     0.00     0  00:00           0           0       0.000 gal
  5114                 JUNCTION      0.00     0.00     0  00:00           0           0       0.000 gal
  5115                 JUNCTION      0.00     0.00     0  00:00           0           0       0.000 gal
  5130                 JUNCTION      0.00     0.00     0  00:00           0           0       0.000 gal
  5131                 JUNCTION      0.00     0.00     0  00:00           0           0       0.000 gal
  5132                 JUNCTION      0.00     0.00     0  00:00           0           0       0.000 gal
  5133                 JUNCTION      0.00     0.00     0  00:00           0           0       0.000 gal
  5134                 JUNCTION      0.00     0.00     0  00:00           0           0       0.000 gal
  5137                 JUNCTION      0.00     0.00     0  00:00           0           0       0.000 gal
  5139                 JUNCTION      0.00     0.00     0  00:00           0           0       0.000 gal
  5140                 JUNCTION      0.00     0.00     0  00:00           0           0       0.000 gal
  5144                 JUNCTION      0.00     0.00     0  00:00           0           0       0.000 gal
  5145                 JUNCTION      0.00     0.00     0  00:00           0           0       0.000 gal
  5146                 JUNCTION      0.00     0.00     0  00:00           0           0       0.000 gal
  5147                 JUNCTION      0.00     0.00     0  00:00           0           0       0.000 gal
  5149                 JUNCTION      0.00     0.00     0  00:00           0           0       0.000 gal
  5150                 JUNCTION      0.00     0.00     0  00:00           0           0       0.000 gal
  5151                 JUNCTION      0.00     0.00     0  00:00           0           0       0.000 gal
  5152                 JUNCTION      0.00     0.00     0  00:00           0           0       0.000 gal
  5153                 JUNCTION      0.00     0.00     0  00:00           0           0       0.000 gal
  5157                 JUNCTION      0.00     0.00     0  00:00           0           0       0.000 gal
  5158                 JUNCTION      0.00     0.00     0  00:00           0           0       0.000 gal
  5177                 JUNCTION      0.00     0.00     0  00:00           0           0       0.000 gal
  5184                 JUNCTION      0.00     0.00     0  00:00           0           0       0.000 gal
  5185                 JUNCTION      0.00     0.00     0  00:00           0           0       0.000 gal
  5186                 JUNCTION      0.00     0.00     0  00:00           0           0       0.000 gal
  5187                 JUNCTION      0.00     0.00     0  00:00           0           0       0.000 gal
  5188                 JUNCTION      0.00     0.00     0  00:00           0           0       0.000 gal
  5189                 JUNCTION      0.00     0.00     0  00:00           0           0       0.000 gal
  5190                 JUNCTION      0.00     0.00     0  00:00           0           0       0.000 gal
  5261                 JUNCTION      0.00     0.00     0  00:00           0           0       0.000 gal
  5262                 JUNCTION      0.00     0.00     0  00:00           0           0       0.000 gal
  5272                 JUNCTION      0.00     0.00     0  00:00           0           0       0.000 gal
  5276                 JUNCTION      0.00     0.00     0  00:00           0           0       0.000 gal
  5279                 JUNCTION      0.00     0.00     0  00:00           0           0       0.000 gal
  5281                 JUNCTION      0.00     0.00     0  00:00           0           0       0.000 gal
  5287                 JUNCTION      0.00     0.00     0  00:00           0           0       0.000 gal
  5289                 JUNCTION      0.00     0.00     0  00:00           0           0       0.000 gal
  5290                 JUNCTION      0.00     0.00     0  00:00           0           0       0.000 gal
  5291                 JUNCTION      0.00     0.00     0  00:00           0           0       0.000 gal
  5306                 JUNCTION      0.00     0.00     0  00:00           0           0       0.000 gal
  5308                 JUNCTION      0.00     0.00     0  00:00           0           0       0.000 gal
  5311                 JUNCTION      0.00     0.00     0  00:00           0           0       0.000 gal
  5312                 JUNCTION      0.00     0.00     0  00:00           0           0       0.000 gal
  5314                 JUNCTION      0.00     0.00     0  00:00           0           0       0.000 gal
  5315                 JUNCTION      0.00     0.00     0  00:00           0           0       0.000 gal
  5385                 JUNCTION      0.00     0.00     0  00:00           0           0       0.000 gal
  5388                 JUNCTION      0.00     0.00     0  00:00           0           0       0.000 gal
  5391                 JUNCTION      0.00     0.00     0  00:00           0           0       0.000 gal
  5400                 JUNCTION      0.00     0.00     0  00:00           0           0       0.000 gal
  5401                 JUNCTION      0.00     0.00     0  00:00           0           0       0.000 gal
  6433                 JUNCTION      0.00     0.00     0  00:00           0           0       0.000 gal
  6434                 JUNCTION      0.00     0.00     0  00:00           0           0       0.000 gal
  7553                 JUNCTION      0.00     0.00     0  00:00           0           0       0.000 gal
  8146                 JUNCTION      0.00     0.00     0  00:00           0           0       0.000 gal
  8191                 JUNCTION      0.00     0.00     0  00:00           0           0       0.000 gal
  9_1_B                JUNCTION      0.00     0.00     0  00:00           0           0       0.000 gal
  9_1_CHANNEL1         JUNCTION      0.00     0.00     0  00:00           0           0       0.000 gal
  9_1_OUT              JUNCTION      0.00     0.00     0  00:00           0           0       0.000 gal
  9_2_CHANNEL1         JUNCTION      0.00     0.00     0  00:00           0           0       0.000 gal
  DS_DELLROAD          JUNCTION      0.00     0.00     0  00:00           0           0       0.000 gal
  DS_KERBERCULVERT     JUNCTION      0.00     0.00     0  00:00           0           0       0.000 gal
  DS_TOWNLINEROAD      JUNCTION      0.00     0.00     0  00:00           0           0       0.000 gal
  JCT-72               JUNCTION      0.00     0.00     0  00:00           0           0       0.000 gal
  JCT-90               JUNCTION      0.00     0.00     0  00:00           0           0       0.000 gal
  KERBER_CULVERT_1     JUNCTION      0.00     0.00     0  00:00           0           0       0.000 gal
  LL-10.16_MH2         JUNCTION      0.00     0.00     0  00:00           0           0       0.000 gal
  LL-10.16_MH3         JUNCTION      0.00     0.00     0  00:00           0           0       0.000 gal
  LL-10.16_OUTLETPIPE  JUNCTION      0.00     0.00     0  00:00           0           0       0.000 gal
  LL-10.17_INFLOW      JUNCTION      0.00     0.00     0  00:00           0           0       0.000 gal
  LL-10.9_CHANNEL      JUNCTION      0.00     0.00     0  00:00           0           0       0.000 gal
  LL-3.2CHANNEL3       JUNCTION      0.00     0.00     0  00:00           0           0       0.000 gal
  LL-3.2_CHANNEL       JUNCTION      0.00     0.00     0  00:00           0           0       0.000 gal
  LL-3.2_CHANNEL1      JUNCTION      0.00     0.00     0  00:00           0           0       0.000 gal
  LL-6.6_1             JUNCTION      0.00     0.00     0  00:00           0           0       0.000 gal
  LL-6.6_2             JUNCTION      0.00     0.00     0  00:00           0           0       0.000 gal
  LL-6.6_3             JUNCTION      0.00     0.00     0  00:00           0           0       0.000 gal
  LL-7.5_CHANNEL       JUNCTION      0.00     0.00     0  00:00           0           0       0.000 gal
  LL-8.1B_CHANNEL      JUNCTION      0.00     0.00     0  00:00           0           0       0.000 gal
  LL-8.1B_OUTLET       JUNCTION      0.00     0.00     0  00:00           0           0       0.000 gal
  LL-8.1DIVERSIONCHANNEL JUNCTION      0.00     0.00     0  00:00           0           0       0.000 gal
  LL-8.1_DIVERSION     JUNCTION      0.00     0.00     0  00:00           0           0       0.000 gal
  LL-8.1_MH1           JUNCTION      0.00     0.00     0  00:00           0           0       0.000 gal
  LL-A10.16_OUTLET     JUNCTION      0.00     0.00     0  00:00           0           0       0.000 gal
  LL-P5.1A_OUT         JUNCTION      0.00     0.00     0  00:00           0           0       0.000 gal
  LL-P6.1_CHANNEL      JUNCTION      0.00     0.00     0  00:00           0           0       0.000 gal
  LL-P6.3_OUT_DS       JUNCTION      0.00     0.00     0  00:00           0           0       0.000 gal
  LL_10.16-CHANNEL1    JUNCTION      0.00     0.00     0  00:00           0           0       0.000 gal
  LL_10.16_CHANNEL2    JUNCTION      0.00     0.00     0  00:00           0           0       0.000 gal
  LL_7.5_CHANNEL1      JUNCTION      0.00     0.00     0  00:00           0           0       0.000 gal
  LL_8.1_DIVERSIONSTRUCTURE JUNCTION      0.00     0.00     0  00:00           0           0       0.000 gal
  LL_OUTLET_DS         JUNCTION      0.00     0.00     0  00:00           0           0       0.000 gal
  LOTUSLAKEOUTLET_FORCALIBRATION JUNCTION      0.00     0.00     0  00:00           0           0       0.000 gal
  LOTUS_OUTLET_50FTDS  JUNCTION      0.00     0.00     0  00:00           0           0       0.000 gal
  MARSH_OUT            JUNCTION      0.00     0.00     0  00:00           0           0       0.000 gal
  MH1_7.3_LL           JUNCTION      0.00     0.00     0  00:00           0           0       0.000 gal
  MH2_7.3_LL           JUNCTION      0.00     0.00     0  00:00           0           0       0.000 gal
  MH3_7.3_LL           JUNCTION      0.00     0.00     0  00:00           0           0       0.000 gal
  MH4_7.3_LL           JUNCTION      0.00     0.00     0  00:00           0           0       0.000 gal
  POND3.1_OUTFALL      JUNCTION      0.00     0.00     0  00:00           0           0       0.000 gal
  PURG13A              JUNCTION      0.00     0.00     0  00:00           0           0       0.000 gal
  PURG13B              JUNCTION      0.00     0.00     0  00:00           0           0       0.000 gal
  PURG13C              JUNCTION      0.00     0.00     0  00:00           0           0       0.000 gal
  PURG14A              JUNCTION      0.00     0.00     0  00:00           0           0       0.000 gal
  PURG14B              JUNCTION      0.00     0.00     0  00:00           0           0       0.000 gal
  PURG14_C             JUNCTION      0.00     0.00     0  00:00           0           0       0.000 gal
  PURGATORY_1          JUNCTION      0.00     0.00     0  00:00           0           0       0.000 gal
  PURGATORY_10         JUNCTION      0.00     0.00     0  00:00           0           0       0.000 gal
  PURGATORY_10_A       JUNCTION      0.00     0.00     0  00:00           0           0       0.000 gal
  PURGATORY_10_B       JUNCTION      0.00     0.00     0  00:00           0           0       0.000 gal
  PURGATORY_11         JUNCTION      0.00     0.00     0  00:00           0           0       0.000 gal
  PURGATORY_11_A       JUNCTION      0.00     0.00     0  00:00           0           0       0.000 gal
  PURGATORY_11_B       JUNCTION      0.00     0.00     0  00:00           0           0       0.000 gal
  PURGATORY_12         JUNCTION      0.00     0.00     0  00:00           0           0       0.000 gal
  PURGATORY_12_A       JUNCTION      0.00     0.00     0  00:00           0           0       0.000 gal
  PURGATORY_12_B       JUNCTION      0.00     0.00     0  00:00           0           0       0.000 gal
  PURGATORY_13         JUNCTION      0.00     0.00     0  00:00           0           0       0.000 gal
  PURGATORY_14         JUNCTION      0.00     0.00     0  00:00           0           0       0.000 gal
  PURGATORY_2          JUNCTION      0.00     0.00     0  00:00           0           0       0.000 gal
  PURGATORY_3          JUNCTION      0.00     0.00     0  00:00           0           0       0.000 gal
  PURGATORY_4          JUNCTION      0.00     0.00     0  00:00           0           0       0.000 gal
  PURGATORY_5          JUNCTION      0.00     0.00     0  00:00           0           0       0.000 gal
  PURGATORY_6          JUNCTION      0.00     0.00     0  00:00           0           0       0.000 gal
  PURGATORY_7          JUNCTION      0.00     0.00     0  00:00           0           0       0.000 gal
  PURGATORY_8          JUNCTION      0.00     0.00     0  00:00           0           0       0.000 gal
  PURGATORY_9          JUNCTION      0.00     0.00     0  00:00           0           0       0.000 gal
  PURGATORY_US_OUTLET  JUNCTION      0.00     0.00     0  00:00           0           0       0.000 gal
  PURGOUTLET_CHANNEL   JUNCTION      0.00     0.00     0  00:00           0           0       0.000 gal
  PURG_CHANNEL1        JUNCTION      0.00     0.00     0  00:00           0           0       0.000 gal
  PURG_CHANNEL2        JUNCTION      0.00     0.00     0  00:00           0           0       0.000 gal
  PURG_DS_DUCK         JUNCTION      0.00     0.00     0  00:00           0           0       0.000 gal
  PURG_DS_TARTAN       JUNCTION      0.00     0.00     0  00:00           0           0       0.000 gal
  PURG_TARTAN_50FTUS   JUNCTION      0.00     0.00     0  00:00           0           0       0.000 gal
  PURG_US_DELL         JUNCTION      0.00     0.00     0  00:00           0           0       0.000 gal
  PURG_US_DUCK         JUNCTION      0.00     0.00     0  00:00           0           0       0.000 gal
  US_KERBER_CULVERT    JUNCTION      0.00     0.00     0  00:00           0           0       0.000 gal
  US_TOWNLINE          JUNCTION      0.00     0.00     0  00:00           0           0       0.000 gal
  US_TOWNLINEROAD      JUNCTION      0.00     0.00     0  00:00           0           0       0.000 gal
  GW_OUTLET            OUTFALL       0.00     0.00     0  00:00           0           0       0.000 gal
  PURG_OUTLET          OUTFALL       0.00     0.00     0  00:00           0           0       0.000 gal
  LL-P1.1              STORAGE       0.00     0.00     0  00:00           0       0.172       0.000
  LL-P1.2              STORAGE       0.00     0.00     0  00:00           0       0.293       0.000
  LL-P1.5              STORAGE       0.00     0.00     0  00:00           0    0.000398       0.000
  LL-P10.1             STORAGE       0.00     0.00     0  00:00           0           0       0.000 gal
  LL-P10.11            STORAGE       0.00     0.00     0  00:00           0       0.503       0.000
  LL-P10.13            STORAGE       0.00     0.00     0  00:00           0      0.0462       0.000
  LL-P10.15            STORAGE       0.00     0.00     0  00:00           0      0.0097       0.000
  LL-P10.16            STORAGE       0.00     0.00     0  00:00           0       0.537       0.000
  LL-P10.16_OUTLET     STORAGE       0.00     0.00     0  00:00           0      0.0235       0.000
  LL-P10.2             STORAGE       0.00     0.00     0  00:00           0      0.0239       0.000
  LL-P10.4             STORAGE       0.00     0.00     0  00:00           0        1.29       0.000
  LL-P10.6             STORAGE       0.00     0.00     0  00:00           0       0.515       0.000
  LL-P10.7             STORAGE       0.00     0.00     0  00:00           0     0.00183       0.000
  LL-P3.1              STORAGE       0.00     0.00     0  00:00           0       0.371       0.000
  LL-P4.2              STORAGE       0.00     0.00     0  00:00           0       0.197       0.000
  LL-P4.3              STORAGE       0.00     0.00     0  00:00           0       0.589       0.000
  LL-P4.4              STORAGE       0.00     0.00     0  00:00           0        1.17       0.000
  LL-P5.1A             STORAGE       0.00     0.00     0  00:00           0      0.0888       0.000
  LL-P6.2              STORAGE       0.00     0.00     0  00:00           0      0.0777       0.000
  LL-P6.3              STORAGE       0.00     0.00     0  00:00           0       0.166       0.000
  LL-P9.1              STORAGE       0.00     0.00     0  00:00           0     0.00649       0.000
  LL_8.1A              STORAGE       0.00     0.00     0  00:00           0      0.0601       0.000
  LL_8.1B              STORAGE       0.00     0.00     0  00:00           0       0.366       0.000
  LOTUS_LAKE           STORAGE       0.00     0.00     0  00:00           0    1.11e+03       0.000
  
  
  **********************
  Node Surcharge Summary
  **********************
  
  No nodes were surcharged.
  
  
  *********************
  Node Flooding Summary
  *********************
  
  No nodes were flooded.
  
  
  **********************
  Storage Volume Summary
  **********************
  
  --------------------------------------------------------------------------------------------------
                         Average     Avg  Evap Exfil       Maximum     Max    Time of Max    Maximum
                          Volume    Pcnt  Pcnt  Pcnt        Volume    Pcnt     Occurrence    Outflow
  Storage Unit          1000 ft3    Full  Loss  Loss      1000 ft3    Full    days hr:min        CFS
  --------------------------------------------------------------------------------------------------
  LL-P1.1              -nan(ind)    -nan(ind)     0     0         0.000       0       0  00:00       0.00
  LL-P1.2              -nan(ind)    -nan(ind)     0     0         0.000       0       0  00:00       0.00
  LL-P1.5              -nan(ind)    -nan(ind)     0     0         0.000       0       0  00:00       0.00
  LL-P10.1             -nan(ind)    -nan(ind)     0     0         0.000       0       0  00:00       0.00
  LL-P10.11            -nan(ind)    -nan(ind)     0     0         0.000       0       0  00:00       0.00
  LL-P10.13            -nan(ind)    -nan(ind)     0     0         0.000       0       0  00:00       0.00
  LL-P10.15            -nan(ind)    -nan(ind)     0     0         0.000       0       0  00:00       0.00
  LL-P10.16            -nan(ind)    -nan(ind)     0     0         0.000       0       0  00:00       0.00
  LL-P10.16_OUTLET     -nan(ind)    -nan(ind)     0     0         0.000       0       0  00:00       0.00
  LL-P10.2             -nan(ind)    -nan(ind)     0     0         0.000       0       0  00:00       0.00
  LL-P10.4             -nan(ind)    -nan(ind)     0     0         0.000       0       0  00:00       0.00
  LL-P10.6             -nan(ind)    -nan(ind)     0     0         0.000       0       0  00:00       0.00
  LL-P10.7             -nan(ind)    -nan(ind)     0     0         0.000       0       0  00:00       0.00
  LL-P3.1              -nan(ind)    -nan(ind)     0     0         0.000       0       0  00:00       0.00
  LL-P4.2              -nan(ind)    -nan(ind)     0     0         0.000       0       0  00:00       0.00
  LL-P4.3              -nan(ind)    -nan(ind)     0     0         0.000       0       0  00:00       0.00
  LL-P4.4              -nan(ind)    -nan(ind)     0     0         0.000       0       0  00:00       0.00
  LL-P5.1A             -nan(ind)    -nan(ind)     0     0         0.000       0       0  00:00       0.00
  LL-P6.2              -nan(ind)    -nan(ind)     0     0         0.000       0       0  00:00       0.00
  LL-P6.3              -nan(ind)    -nan(ind)     0     0         0.000       0       0  00:00       0.00
  LL-P9.1              -nan(ind)    -nan(ind)     0     0         0.000       0       0  00:00       0.00
  LL_8.1A              -nan(ind)    -nan(ind)     0     0         0.000       0       0  00:00       0.00
  LL_8.1B              -nan(ind)    -nan(ind)     0     0         0.000       0       0  00:00       0.00
  LOTUS_LAKE           -nan(ind)    -nan(ind)     0     0         0.000       0       0  00:00       0.00
  
  
  ***********************
  Outfall Loading Summary
  ***********************
  
  -----------------------------------------------------------
                         Flow       Avg       Max       Total
                         Freq      Flow      Flow      Volume
  Outfall Node           Pcnt       CFS       CFS    10^6 gal
  -----------------------------------------------------------
  GW_OUTLET           -nan(ind)      0.00      0.00       0.000
  PURG_OUTLET         -nan(ind)      0.00      0.00       0.000
  -----------------------------------------------------------
  System              -nan(ind)      0.00      0.00       0.000
  
  
  ********************
  Link Flow Summary
  ********************
  
  -----------------------------------------------------------------------------
                                 Maximum  Time of Max   Maximum    Max/    Max/
                                  |Flow|   Occurrence   |Veloc|    Full    Full
  Link                 Type          CFS  days hr:min    ft/sec    Flow   Depth
  -----------------------------------------------------------------------------
  10.16_CHANNEL_1      CHANNEL      0.00     0  00:00      0.00    0.00    0.00
  10.16_CHANNEL_2      CHANNEL      0.00     0  00:00      0.00    0.00    0.00
  10.16_OPENCHANNEL    CHANNEL      0.00     0  00:00      0.00    0.00    0.00
  10.16_OVERFLOW_STRUCTURE CHANNEL      0.00     0  00:00      0.00    0.00    0.00
  192ND_STREET         CHANNEL      0.00     0  00:00      0.00    0.00    0.00
  2533L1               CONDUIT      0.00     0  00:00      0.00    0.00    0.00
  2534L1               CONDUIT      0.00     0  00:00      0.00    0.00    0.00
  2537L1               CONDUIT      0.00     0  00:00      0.00    0.00    0.00
  2541L1               CONDUIT      0.00     0  00:00      0.00    0.00    0.00
  2542L1               CONDUIT      0.00     0  00:00      0.00    0.00    0.00
  2558L1               CONDUIT      0.00     0  00:00      0.00    0.00    0.00
  2560L1               CONDUIT      0.00     0  00:00      0.00    0.00    0.00
  2561L1               CONDUIT      0.00     0  00:00      0.00    0.00    0.00
  2582L1               CONDUIT      0.00     0  00:00      0.00    0.00    0.00
  2583L1               CONDUIT      0.00     0  00:00      0.00    0.00    0.00
  2585L1               CONDUIT      0.00     0  00:00      0.00    0.00    0.00
  2586L1               CONDUIT      0.00     0  00:00      0.00    0.00    0.00
  3008L1               CONDUIT      0.00     0  00:00      0.00    0.00    0.00
  3009L1               CONDUIT      0.00     0  00:00      0.00    0.00    0.00
  3011L1               CONDUIT      0.00     0  00:00      0.00    0.00    0.00
  3012L1               CONDUIT      0.00     0  00:00      0.00    0.00    0.00
  3085L1               CONDUIT      0.00     0  00:00      0.00    0.00    0.00
  3168L1               CONDUIT      0.00     0  00:00      0.00    0.00    0.00
  3168L2               CHANNEL      0.00     0  00:00      0.00    0.00    0.00
  3170L1               CONDUIT      0.00     0  00:00      0.00    0.00    0.00
  3170L2               CHANNEL      0.00     0  00:00      0.00    0.00    0.00
  3171L1               CONDUIT      0.00     0  00:00      0.00    0.00    0.00
  3173L1               CONDUIT      0.00     0  00:00      0.00    0.00    0.00
  3174L1               CONDUIT      0.00     0  00:00      0.00    0.00    0.00
  3177L1               CONDUIT      0.00     0  00:00      0.00    0.00    0.00
  3181L1               CONDUIT      0.00     0  00:00      0.00    0.00    0.00
  3182L1               CONDUIT      0.00     0  00:00      0.00    0.00    0.00
  3183L1               CONDUIT      0.00     0  00:00      0.00    0.00    0.00
  3183L2               CHANNEL      0.00     0  00:00      0.00    0.00    0.00
  3531L1               CONDUIT      0.00     0  00:00      0.00    0.00    0.00
  3532L1               CONDUIT      0.00     0  00:00      0.00    0.00    0.00
  3533L1               CONDUIT      0.00     0  00:00      0.00    0.00    0.00
  3534L1               CONDUIT      0.00     0  00:00      0.00    0.00    0.00
  3535L1               CONDUIT      0.00     0  00:00      0.00    0.00    0.00
  3536L1               CONDUIT      0.00     0  00:00      0.00    0.00    0.00
  4.4MARSH_OUTL1       CHANNEL      0.00     0  00:00      0.00    0.00    0.00
  4.4_CHANNEL          CHANNEL      0.00     0  00:00      0.00    0.00    0.00
  5107L1               CONDUIT      0.00     0  00:00      0.00    0.00    0.00
  5109L1               CONDUIT      0.00     0  00:00      0.00    0.00    0.00
  5114L1               CONDUIT      0.00     0  00:00      0.00    0.00    0.00
  5115L1               CONDUIT      0.00     0  00:00      0.00    0.00    0.00
  5130L1               CONDUIT      0.00     0  00:00      0.00    0.00    0.00
  5131L1               CONDUIT      0.00     0  00:00      0.00    0.00    0.00
  5132L1               CONDUIT      0.00     0  00:00      0.00    0.00    0.00
  5133L1               CONDUIT      0.00     0  00:00      0.00    0.00    0.00
  5134L1               CONDUIT      0.00     0  00:00      0.00    0.00    0.00
  5137L1               CONDUIT      0.00     0  00:00      0.00    0.00    0.00
  5139L1               CONDUIT      0.00     0  00:00      0.00    0.00    0.00
  5140L1               CONDUIT      0.00     0  00:00      0.00    0.00    0.00
  5144L1               CONDUIT      0.00     0  00:00      0.00    0.00    0.00
  5145L1               CONDUIT      0.00     0  00:00      0.00    0.00    0.00
  5146L1               CONDUIT      0.00     0  00:00      0.00    0.00    0.00
  5147L1               CONDUIT      0.00     0  00:00      0.00    0.00    0.00
  5149L1               CONDUIT      0.00     0  00:00      0.00    0.00    0.00
  5151L1               CONDUIT      0.00     0  00:00      0.00    0.00    0.00
  5152L1               CONDUIT      0.00     0  00:00      0.00    0.00    0.00
  5153L1               CONDUIT      0.00     0  00:00      0.00    0.00    0.00
  5157L1               CONDUIT      0.00     0  00:00      0.00    0.00    0.00
  5158L1               CONDUIT      0.00     0  00:00      0.00    0.00    0.00
  5177L1               CONDUIT      0.00     0  00:00      0.00    0.00    0.00
  5184L1               CONDUIT      0.00     0  00:00      0.00    0.00    0.00
  5185L1               CONDUIT      0.00     0  00:00      0.00    0.00    0.00
  5186L1               CONDUIT      0.00     0  00:00      0.00    0.00    0.00
  5187L1               CONDUIT      0.00     0  00:00      0.00    0.00    0.00
  5188L1               CONDUIT      0.00     0  00:00      0.00    0.00    0.00
  5189L1               CONDUIT      0.00     0  00:00      0.00    0.00    0.00
  5190L1               CONDUIT      0.00     0  00:00      0.00    0.00    0.00
  5261L1               CONDUIT      0.00     0  00:00      0.00    0.00    0.00
  5262L1               CONDUIT      0.00     0  00:00      0.00    0.00    0.00
  5272L1               CONDUIT      0.00     0  00:00      0.00    0.00    0.00
  5276L1               CONDUIT      0.00     0  00:00      0.00    0.00    0.00
  5279L1               CONDUIT      0.00     0  00:00      0.00    0.00    0.00
  5281L1               CONDUIT      0.00     0  00:00      0.00    0.00    0.00
  5287L1               CONDUIT      0.00     0  00:00      0.00    0.00    0.00
  5289L1               CONDUIT      0.00     0  00:00      0.00    0.00    0.00
  5290L1               CONDUIT      0.00     0  00:00      0.00    0.00    0.00
  5291L1               CONDUIT      0.00     0  00:00      0.00    0.00    0.00
  5306L1               CONDUIT      0.00     0  00:00      0.00    0.00    0.00
  5308L1               CONDUIT      0.00     0  00:00      0.00    0.00    0.00
  5311L1               CONDUIT      0.00     0  00:00      0.00    0.00    0.00
  5312L1               CONDUIT      0.00     0  00:00      0.00    0.00    0.00
  5314L1               CONDUIT      0.00     0  00:00      0.00    0.00    0.00
  5315L1               CONDUIT      0.00     0  00:00      0.00    0.00    0.00
  5385L1               CONDUIT      0.00     0  00:00      0.00    0.00    0.00
  5388_L1              CONDUIT      0.00     0  00:00      0.00    0.00    0.00
  5391L1               CONDUIT      0.00     0  00:00      0.00    0.00    0.00
  5400L1               CONDUIT      0.00     0  00:00      0.00    0.00    0.00
  5401L1               CONDUIT      0.00     0  00:00      0.00    0.00    0.00
  6433L1               CONDUIT      0.00     0  00:00      0.00    0.00    0.00
  6434L1               CONDUIT      0.00     0  00:00      0.00    0.00    0.00
  8146L1               CHANNEL      0.00     0  00:00      0.00    0.00    0.00
  9_1_OUTLET           CONDUIT      0.00     0  00:00      0.00    0.00    0.00
  9_2_CHANNEL          CHANNEL      0.00     0  00:00      0.00    0.00    0.00
  CDT-497              CONDUIT      0.00     0  00:00      0.00    0.00    0.00
  CDT-499              CHANNEL      0.00     0  00:00      0.00    0.00    0.00
  CDT-503              CHANNEL      0.00     0  00:00      0.00    0.00    0.00
  CDT-507              CONDUIT      0.00     0  00:00      0.00    0.00    0.00
  CDT-509              CHANNEL      0.00     0  00:00      0.00    0.00    0.00
  CDT-511              CHANNEL      0.00     0  00:00      0.00    0.00    0.00
  CDT-513              CHANNEL      0.00     0  00:00      0.00    0.00    0.00
  CDT-515              CHANNEL      0.00     0  00:00      0.00    0.00    0.00
  CDT-517              CHANNEL      0.00     0  00:00      0.00    0.00    0.00
  CDT-519              CHANNEL      0.00     0  00:00      0.00    0.00    0.00
  CDT-521              CHANNEL      0.00     0  00:00      0.00    0.00    0.00
  CDT-523              CHANNEL      0.00     0  00:00      0.00    0.00    0.00
  CDT-527              CHANNEL      0.00     0  00:00      0.00    0.00    0.00
  CDT-531              CONDUIT      0.00     0  00:00      0.00    0.00    0.00
  CDT-533              CHANNEL      0.00     0  00:00      0.00    0.00    0.00
  CDT-537              CHANNEL      0.00     0  00:00      0.00    0.00    0.00
  CDT-539              CHANNEL      0.00     0  00:00      0.00    0.00    0.00
  CDT-541              CHANNEL      0.00     0  00:00      0.00    0.00    0.00
  CDT-543              CHANNEL      0.00     0  00:00      0.00    0.00    0.00
  CDT-545              CHANNEL      0.00     0  00:00      0.00    0.00    0.00
  CDT-547              CHANNEL      0.00     0  00:00      0.00    0.00    0.00
  CDT-549              CHANNEL      0.00     0  00:00      0.00    0.00    0.00
  CDT-551              CHANNEL      0.00     0  00:00      0.00    0.00    0.00
  CDT-553              CHANNEL      0.00     0  00:00      0.00    0.00    0.00
  CDT-555              CHANNEL      0.00     0  00:00      0.00    0.00    0.00
  CDT-557              CHANNEL      0.00     0  00:00      0.00    0.00    0.00
  CDT-559              CHANNEL      0.00     0  00:00      0.00    0.00    0.00
  CDT-561              CHANNEL      0.00     0  00:00      0.00    0.00    0.00
  CDT-563              CHANNEL      0.00     0  00:00      0.00    0.00    0.00
  CDT-565              CHANNEL      0.00     0  00:00      0.00    0.00    0.00
  CDT-567              CHANNEL      0.00     0  00:00      0.00    0.00    0.00
  CDT-569              CHANNEL      0.00     0  00:00      0.00    0.00    0.00
  CDT-571              CHANNEL      0.00     0  00:00      0.00    0.00    0.00
  CDT-579              CHANNEL      0.00     0  00:00      0.00    0.00    0.00
  CDT-581              CHANNEL      0.00     0  00:00      0.00    0.00    0.00
  CDT-583              CHANNEL      0.00     0  00:00      0.00    0.00    0.00
  CDT-585              CHANNEL      0.00     0  00:00      0.00    0.00    0.00
  CDT-587              CHANNEL      0.00     0  00:00      0.00    0.00    0.00
  CDT-589              CHANNEL      0.00     0  00:00      0.00    0.00    0.00
  DUCK_LAKE_TRAIL      CHANNEL      0.00     0  00:00      0.00    0.00    0.00
  KERBER_BLVD          CHANNEL      0.00     0  00:00      0.00    0.00    0.00
  LL-10.13_OUTLET      CHANNEL      0.00     0  00:00      0.00    0.00    0.00
  LL-10.16_CHANNEL     CONDUIT      0.00     0  00:00      0.00    0.00    0.00
  LL-10.16_CHANNEL2    CHANNEL      0.00     0  00:00      0.00    0.00    0.00
  LL-10.16_CHANNEL3    CHANNEL      0.00     0  00:00      0.00    0.00    0.00
  LL-10.16_OUT2CHANNEL CHANNEL      0.00     0  00:00      0.00    0.00    0.00
  LL-10.16_STORMSEWERCHANNEL CONDUIT      0.00     0  00:00      0.00    0.00    0.00
  LL-10.9_CHANNEL_1    CHANNEL      0.00     0  00:00      0.00    0.00    0.00
  LL-6.6_1             CHANNEL      0.00     0  00:00      0.00    0.00    0.00
  LL-6.6_3L1           CONDUIT      0.00     0  00:00      0.00    0.00    0.00
  LL-6.6_L2            CHANNEL      0.00     0  00:00      0.00    0.00    0.00
  LL-7.5CHANNEL        CHANNEL      0.00     0  00:00      0.00    0.00    0.00
  LL-8.1A_ORIFICE      CONDUIT      0.00     0  00:00      0.00    0.00    0.00
  LL-8.1B_CHANNEL      CHANNEL      0.00     0  00:00      0.00    0.00    0.00
  LL-8.1_DIVERSIONCHANNEL CHANNEL      0.00     0  00:00      0.00    0.00    0.00
  LL-8.1_DIVERSIONL1   CONDUIT      0.00     0  00:00      0.00    0.00    0.00
  LL-8.1_DIVERSIONPIPE CONDUIT      0.00     0  00:00      0.00    0.00    0.00
  LL-8.1_DIVERSIONTOPOND CONDUIT      0.00     0  00:00      0.00    0.00    0.00
  LL-8.1_POND_CONNECTION CONDUIT      0.00     0  00:00      0.00    0.00    0.00
  LL-9.1_CHANNEL1      CHANNEL      0.00     0  00:00      0.00    0.00    0.00
  LL-A1.5_OUTLETCHANNEL CHANNEL      0.00     0  00:00      0.00    0.00    0.00
  LL-A6.3_MARSH        CHANNEL      0.00     0  00:00      0.00    0.00    0.00
  LL-A6.3_OUT          CONDUIT      0.00     0  00:00      0.00    0.00    0.00
  LL-P1.1_OUTL1        CONDUIT      0.00     0  00:00      0.00    0.00    0.00
  LL-P1.5_OUTL1        CONDUIT      0.00     0  00:00      0.00    0.00    0.00
  LL-P10.11_OUTLET     CONDUIT      0.00     0  00:00      0.00    0.00    0.00
  LL-P10.16_OUTLETL1   CHANNEL      0.00     0  00:00      0.00    0.00    0.00
  LL-P10.16_OVERFLOWCHANNEL CHANNEL      0.00     0  00:00      0.00    0.00    0.00
  LL-P10.2_OUTL1       CONDUIT      0.00     0  00:00      0.00    0.00    0.00
  LL-P10.7_OUTL1       CONDUIT      0.00     0  00:00      0.00    0.00    0.00
  LL-P3.1L1            CHANNEL      0.00     0  00:00      0.00    0.00    0.00
  LL-P3.1_OUTL1        CONDUIT      0.00     0  00:00      0.00    0.00    0.00
  LL-P4.2L1            CONDUIT      0.00     0  00:00      0.00    0.00    0.00
  LL-P4.3_OUTFALL      CONDUIT      0.00     0  00:00      0.00    0.00    0.00
  LL-P5.1A_OUTLET      CONDUIT      0.00     0  00:00      0.00    0.00    0.00
  LL-P6.2L1            CONDUIT      0.00     0  00:00      0.00    0.00    0.00
  LL10.4_OUTLET        CONDUIT      0.00     0  00:00      0.00    0.00    0.00
  LL_10.15_OUTLET      CONDUIT      0.00     0  00:00      0.00    0.00    0.00
  LL_10.16_OUTL1       CONDUIT      0.00     0  00:00      0.00    0.00    0.00
  LL_10.6_OUTLET       CONDUIT      0.00     0  00:00      0.00    0.00    0.00
  LL_6.6_PIPE_OUTLET   CONDUIT      0.00     0  00:00      0.00    0.00    0.00
  LL_OUTLET_STRUCT     CONDUIT      0.00     0  00:00      0.00    0.00    0.00
  LOTUSLAKE_OUTLET     CHANNEL      0.00     0  00:00      0.00    0.00    0.00
  MH1_7.3L1            CONDUIT      0.00     0  00:00      0.00    0.00    0.00
  MH1_7.3L2            CHANNEL      0.00     0  00:00      0.00    0.00    0.00
  MH2_7.3L1            CONDUIT      0.00     0  00:00      0.00    0.00    0.00
  MH2_7.3L2            CHANNEL      0.00     0  00:00      0.00    0.00    0.00
  MH3_7.3L2            CHANNEL      0.00     0  00:00      0.00    0.00    0.00
  MH3_7.3_L1           CONDUIT      0.00     0  00:00      0.00    0.00    0.00
  MH4_7.3L1            CONDUIT      0.00     0  00:00      0.00    0.00    0.00
  MH4_7.3L2            CHANNEL      0.00     0  00:00      0.00    0.00    0.00
  OUTLET_4_CALIBRATION CONDUIT      0.00     0  00:00      0.00    0.00    0.00
  PURG9                CHANNEL      0.00     0  00:00      0.00    0.00    0.00
  PURG_13              CHANNEL      0.00     0  00:00      0.00    0.00    0.00
  PURG_BRANCH_L1       CHANNEL      0.00     0  00:00      0.00    0.00    0.00
  PURG_DELLROAD_CULVERT CONDUIT      0.00     0  00:00      0.00    0.00    0.00
  PURG_DUCKLAKE_CULVERT CONDUIT      0.00     0  00:00      0.00    0.00    0.00
  PURG_L1              CHANNEL      0.00     0  00:00      0.00    0.00    0.00
  PURG_L2              CHANNEL      0.00     0  00:00      0.00    0.00    0.00
  PURG_L3              CHANNEL      0.00     0  00:00      0.00    0.00    0.00
  PURG_L4              CHANNEL      0.00     0  00:00      0.00    0.00    0.00
  PURG_L5              CHANNEL      0.00     0  00:00      0.00    0.00    0.00
  PURG_L6              CHANNEL      0.00     0  00:00      0.00    0.00    0.00
  PURG_L7              CHANNEL      0.00     0  00:00      0.00    0.00    0.00
  PURG_OUTLET          CHANNEL      0.00     0  00:00      0.00    0.00    0.00
  PURG_TARTAN_CULVERT  CONDUIT      0.00     0  00:00      0.00    0.00    0.00
  PURG_TOWNLINEROAD    CHANNEL      0.00     0  00:00      0.00    0.00    0.00
  TARTAN_ROAD          CHANNEL      0.00     0  00:00      0.00    0.00    0.00
  10.16_ORIFICE        ORIFICE      0.00     0  00:00                          
  10.16_WEIR_OUTLET    WEIR         0.00     0  00:00                      0.00
  LL-10.16_ROADWAY_WEIR WEIR         0.00     0  00:00                      0.00
  LL-8.1A_WEIR         WEIR         0.00     0  00:00                      0.00
  LL-8.1B_OVERFLOW     WEIR         0.00     0  00:00                      0.00
  LL-P10.16_OVERFLOW2  WEIR         0.00     0  00:00                      0.00
  LL-P10.6_WEIROUTLET  WEIR         0.00     0  00:00                      0.00
  LL-P5.1A_OUTLETWEIR  WEIR         0.00     0  00:00                      0.00
  LL_4.4_MARSHOUTLET   WEIR         0.00     0  00:00                      0.00
  LL_8.1_PONDINLET_WEIR WEIR         0.00     0  00:00                      0.00
  LL_OVERFLOW_OUTLET   WEIR         0.00     0  00:00                      0.00
  LL_OVERFLOW_OUTLET_2 WEIR         0.00     0  00:00                      0.00
  LL_OVERFLOW_OUTLET_3 WEIR         0.00     0  00:00                      0.00
  GW-OUTLET            DUMMY        0.00     0  00:00
  LL-P1.2_OUTLET       DUMMY        0.00     0  00:00
  
  
  ***************************
  Flow Classification Summary
  ***************************
  
  -------------------------------------------------------------------------------------
                      Adjusted    ---------- Fraction of Time in Flow Class ---------- 
                       /Actual         Up    Down  Sub   Sup   Up    Down  Norm  Inlet 
  Conduit               Length    Dry  Dry   Dry   Crit  Crit  Crit  Crit  Ltd   Ctrl  
  -------------------------------------------------------------------------------------
[...]
  5146L1                  1.79   -nan(ind)  -nan(ind)  -nan(ind)  -nan(ind)  -nan(ind)  -nan(ind)  -nan(ind)  -nan(ind)  -nan(ind)
  5147L1                  1.67   -nan(ind)  -nan(ind)  -nan(ind)  -nan(ind)  -nan(ind)  -nan(ind)  -nan(ind)  -nan(ind)  -nan(ind)
  5149L1                  1.20   -nan(ind)  -nan(ind)  -nan(ind)  -nan(ind)  -nan(ind)  -nan(ind)  -nan(ind)  -nan(ind)  -nan(ind)
  5151L1                  1.00   -nan(ind)  -nan(ind)  -nan(ind)  -nan(ind)  -nan(ind)  -nan(ind)  -nan(ind)  -nan(ind)  -nan(ind)
  5152L1                  1.00   -nan(ind)  -nan(ind)  -nan(ind)  -nan(ind)  -nan(ind)  -nan(ind)  -nan(ind)  -nan(ind)  -nan(ind)
  5153L1                  1.00   -nan(ind)  -nan(ind)  -nan(ind)  -nan(ind)  -nan(ind)  -nan(ind)  -nan(ind)  -nan(ind)  -nan(ind)
  5157L1                  1.00   -nan(ind)  -nan(ind)  -nan(ind)  -nan(ind)  -nan(ind)  -nan(ind)  -nan(ind)  -nan(ind)  -nan(ind)
  5158L1                  7.30   -nan(ind)  -nan(ind)  -nan(ind)  -nan(ind)  -nan(ind)  -nan(ind)  -nan(ind)  -nan(ind)  -nan(ind)
  5177L1                  1.00   -nan(ind)  -nan(ind)  -nan(ind)  -nan(ind)  -nan(ind)  -nan(ind)  -nan(ind)  -nan(ind)  -nan(ind)
  5184L1                  1.00   -nan(ind)  -nan(ind)  -nan(ind)  -nan(ind)  -nan(ind)  -nan(ind)  -nan(ind)  -nan(ind)  -nan(ind)
  5185L1                  1.00   -nan(ind)  -nan(ind)  -nan(ind)  -nan(ind)  -nan(ind)  -nan(ind)  -nan(ind)  -nan(ind)  -nan(ind)
  5186L1                  1.00   -nan(ind)  -nan(ind)  -nan(ind)  -nan(ind)  -nan(ind)  -nan(ind)  -nan(ind)  -nan(ind)  -nan(ind)
  5187L1                  1.00   -nan(ind)  -nan(ind)  -nan(ind)  -nan(ind)  -nan(ind)  -nan(ind)  -nan(ind)  -nan(ind)  -nan(ind)
  5188L1                  1.00   -nan(ind)  -nan(ind)  -nan(ind)  -nan(ind)  -nan(ind)  -nan(ind)  -nan(ind)  -nan(ind)  -nan(ind)
  5189L1                  1.00   -nan(ind)  -nan(ind)  -nan(ind)  -nan(ind)  -nan(ind)  -nan(ind)  -nan(ind)  -nan(ind)  -nan(ind)
  5190L1                  2.36   -nan(ind)  -nan(ind)  -nan(ind)  -nan(ind)  -nan(ind)  -nan(ind)  -nan(ind)  -nan(ind)  -nan(ind)
  5261L1                  1.64   -nan(ind)  -nan(ind)  -nan(ind)  -nan(ind)  -nan(ind)  -nan(ind)  -nan(ind)  -nan(ind)  -nan(ind)
  5262L1                  1.00   -nan(ind)  -nan(ind)  -nan(ind)  -nan(ind)  -nan(ind)  -nan(ind)  -nan(ind)  -nan(ind)  -nan(ind)
  5272L1                  1.03   -nan(ind)  -nan(ind)  -nan(ind)  -nan(ind)  -nan(ind)  -nan(ind)  -nan(ind)  -nan(ind)  -nan(ind)
  5276L1                  1.00   -nan(ind)  -nan(ind)  -nan(ind)  -nan(ind)  -nan(ind)  -nan(ind)  -nan(ind)  -nan(ind)  -nan(ind)
  5279L1                  1.00   -nan(ind)  -nan(ind)  -nan(ind)  -nan(ind)  -nan(ind)  -nan(ind)  -nan(ind)  -nan(ind)  -nan(ind)
  5281L1                  2.79   -nan(ind)  -nan(ind)  -nan(ind)  -nan(ind)  -nan(ind)  -nan(ind)  -nan(ind)  -nan(ind)  -nan(ind)
  5287L1                  1.00   -nan(ind)  -nan(ind)  -nan(ind)  -nan(ind)  -nan(ind)  -nan(ind)  -nan(ind)  -nan(ind)  -nan(ind)
  5289L1                  1.00   -nan(ind)  -nan(ind)  -nan(ind)  -nan(ind)  -nan(ind)  -nan(ind)  -nan(ind)  -nan(ind)  -nan(ind)
  5290L1                  1.43   -nan(ind)  -nan(ind)  -nan(ind)  -nan(ind)  -nan(ind)  -nan(ind)  -nan(ind)  -nan(ind)  -nan(ind)
  5291L1                  3.21   -nan(ind)  -nan(ind)  -nan(ind)  -nan(ind)  -nan(ind)  -nan(ind)  -nan(ind)  -nan(ind)  -nan(ind)
  5306L1                  1.00   -nan(ind)  -nan(ind)  -nan(ind)  -nan(ind)  -nan(ind)  -nan(ind)  -nan(ind)  -nan(ind)  -nan(ind)
  5308L1                  1.00   -nan(ind)  -nan(ind)  -nan(ind)  -nan(ind)  -nan(ind)  -nan(ind)  -nan(ind)  -nan(ind)  -nan(ind)
  5311L1                  1.00   -nan(ind)  -nan(ind)  -nan(ind)  -nan(ind)  -nan(ind)  -nan(ind)  -nan(ind)  -nan(ind)  -nan(ind)
  5312L1                  1.00   -nan(ind)  -nan(ind)  -nan(ind)  -nan(ind)  -nan(ind)  -nan(ind)  -nan(ind)  -nan(ind)  -nan(ind)
  5314L1                  1.00   -nan(ind)  -nan(ind)  -nan(ind)  -nan(ind)  -nan(ind)  -nan(ind)  -nan(ind)  -nan(ind)  -nan(ind)
  5315L1                  1.00   -nan(ind)  -nan(ind)  -nan(ind)  -nan(ind)  -nan(ind)  -nan(ind)  -nan(ind)  -nan(ind)  -nan(ind)
  5385L1                  1.00   -nan(ind)  -nan(ind)  -nan(ind)  -nan(ind)  -nan(ind)  -nan(ind)  -nan(ind)  -nan(ind)  -nan(ind)
  5388_L1                 3.95   -nan(ind)  -nan(ind)  -nan(ind)  -nan(ind)  -nan(ind)  -nan(ind)  -nan(ind)  -nan(ind)  -nan(ind)
  5391L1                  1.00   -nan(ind)  -nan(ind)  -nan(ind)  -nan(ind)  -nan(ind)  -nan(ind)  -nan(ind)  -nan(ind)  -nan(ind)
  5400L1                  1.00   -nan(ind)  -nan(ind)  -nan(ind)  -nan(ind)  -nan(ind)  -nan(ind)  -nan(ind)  -nan(ind)  -nan(ind)
  5401L1                  1.14   -nan(ind)  -nan(ind)  -nan(ind)  -nan(ind)  -nan(ind)  -nan(ind)  -nan(ind)  -nan(ind)  -nan(ind)
  6433L1                  2.32   -nan(ind)  -nan(ind)  -nan(ind)  -nan(ind)  -nan(ind)  -nan(ind)  -nan(ind)  -nan(ind)  -nan(ind)
  6434L1                  1.00   -nan(ind)  -nan(ind)  -nan(ind)  -nan(ind)  -nan(ind)  -nan(ind)  -nan(ind)  -nan(ind)  -nan(ind)
  8146L1                  1.00   -nan(ind)  -nan(ind)  -nan(ind)  -nan(ind)  -nan(ind)  -nan(ind)  -nan(ind)  -nan(ind)  -nan(ind)
  9_1_OUTLET              1.58   -nan(ind)  -nan(ind)  -nan(ind)  -nan(ind)  -nan(ind)  -nan(ind)  -nan(ind)  -nan(ind)  -nan(ind)
  9_2_CHANNEL             1.00   -nan(ind)  -nan(ind)  -nan(ind)  -nan(ind)  -nan(ind)  -nan(ind)  -nan(ind)  -nan(ind)  -nan(ind)
  CDT-497                 1.39   -nan(ind)  -nan(ind)  -nan(ind)  -nan(ind)  -nan(ind)  -nan(ind)  -nan(ind)  -nan(ind)  -nan(ind)
  CDT-499                 1.00   -nan(ind)  -nan(ind)  -nan(ind)  -nan(ind)  -nan(ind)  -nan(ind)  -nan(ind)  -nan(ind)  -nan(ind)
  CDT-503                 1.00   -nan(ind)  -nan(ind)  -nan(ind)  -nan(ind)  -nan(ind)  -nan(ind)  -nan(ind)  -nan(ind)  -nan(ind)
  CDT-507                 1.00   -nan(ind)  -nan(ind)  -nan(ind)  -nan(ind)  -nan(ind)  -nan(ind)  -nan(ind)  -nan(ind)  -nan(ind)
  CDT-509                 2.69   -nan(ind)  -nan(ind)  -nan(ind)  -nan(ind)  -nan(ind)  -nan(ind)  -nan(ind)  -nan(ind)  -nan(ind)
  CDT-511                 1.00   -nan(ind)  -nan(ind)  -nan(ind)  -nan(ind)  -nan(ind)  -nan(ind)  -nan(ind)  -nan(ind)  -nan(ind)
  CDT-513                 4.28   -nan(ind)  -nan(ind)  -nan(ind)  -nan(ind)  -nan(ind)  -nan(ind)  -nan(ind)  -nan(ind)  -nan(ind)
  CDT-515                 1.00   -nan(ind)  -nan(ind)  -nan(ind)  -nan(ind)  -nan(ind)  -nan(ind)  -nan(ind)  -nan(ind)  -nan(ind)
  CDT-517                 3.95   -nan(ind)  -nan(ind)  -nan(ind)  -nan(ind)  -nan(ind)  -nan(ind)  -nan(ind)  -nan(ind)  -nan(ind)
  CDT-519                 1.00   -nan(ind)  -nan(ind)  -nan(ind)  -nan(ind)  -nan(ind)  -nan(ind)  -nan(ind)  -nan(ind)  -nan(ind)
  CDT-521                 4.10   -nan(ind)  -nan(ind)  -nan(ind)  -nan(ind)  -nan(ind)  -nan(ind)  -nan(ind)  -nan(ind)  -nan(ind)
  CDT-523                 1.00   -nan(ind)  -nan(ind)  -nan(ind)  -nan(ind)  -nan(ind)  -nan(ind)  -nan(ind)  -nan(ind)  -nan(ind)
  CDT-527                 4.08   -nan(ind)  -nan(ind)  -nan(ind)  -nan(ind)  -nan(ind)  -nan(ind)  -nan(ind)  -nan(ind)  -nan(ind)
  CDT-531                 1.23   -nan(ind)  -nan(ind)  -nan(ind)  -nan(ind)  -nan(ind)  -nan(ind)  -nan(ind)  -nan(ind)  -nan(ind)
  CDT-533                 3.01   -nan(ind)  -nan(ind)  -nan(ind)  -nan(ind)  -nan(ind)  -nan(ind)  -nan(ind)  -nan(ind)  -nan(ind)
  CDT-537                 1.00   -nan(ind)  -nan(ind)  -nan(ind)  -nan(ind)  -nan(ind)  -nan(ind)  -nan(ind)  -nan(ind)  -nan(ind)
  CDT-539                 1.00   -nan(ind)  -nan(ind)  -nan(ind)  -nan(ind)  -nan(ind)  -nan(ind)  -nan(ind)  -nan(ind)  -nan(ind)
  CDT-541                 1.00   -nan(ind)  -nan(ind)  -nan(ind)  -nan(ind)  -nan(ind)  -nan(ind)  -nan(ind)  -nan(ind)  -nan(ind)
  CDT-543                 2.14   -nan(ind)  -nan(ind)  -nan(ind)  -nan(ind)  -nan(ind)  -nan(ind)  -nan(ind)  -nan(ind)  -nan(ind)
  CDT-545                 1.27   -nan(ind)  -nan(ind)  -nan(ind)  -nan(ind)  -nan(ind)  -nan(ind)  -nan(ind)  -nan(ind)  -nan(ind)
  CDT-547                 1.00   -nan(ind)  -nan(ind)  -nan(ind)  -nan(ind)  -nan(ind)  -nan(ind)  -nan(ind)  -nan(ind)  -nan(ind)
  CDT-549                 1.00   -nan(ind)  -nan(ind)  -nan(ind)  -nan(ind)  -nan(ind)  -nan(ind)  -nan(ind)  -nan(ind)  -nan(ind)
  CDT-551                 1.00   -nan(ind)  -nan(ind)  -nan(ind)  -nan(ind)  -nan(ind)  -nan(ind)  -nan(ind)  -nan(ind)  -nan(ind)
  CDT-553                 1.00   -nan(ind)  -nan(ind)  -nan(ind)  -nan(ind)  -nan(ind)  -nan(ind)  -nan(ind)  -nan(ind)  -nan(ind)
  CDT-555                 1.00   -nan(ind)  -nan(ind)  -nan(ind)  -nan(ind)  -nan(ind)  -nan(ind)  -nan(ind)  -nan(ind)  -nan(ind)
  CDT-557                 1.00   -nan(ind)  -nan(ind)  -nan(ind)  -nan(ind)  -nan(ind)  -nan(ind)  -nan(ind)  -nan(ind)  -nan(ind)
  CDT-559                 1.00   -nan(ind)  -nan(ind)  -nan(ind)  -nan(ind)  -nan(ind)  -nan(ind)  -nan(ind)  -nan(ind)  -nan(ind)
  CDT-561                 1.00   -nan(ind)  -nan(ind)  -nan(ind)  -nan(ind)  -nan(ind)  -nan(ind)  -nan(ind)  -nan(ind)  -nan(ind)
  CDT-563                 1.00   -nan(ind)  -nan(ind)  -nan(ind)  -nan(ind)  -nan(ind)  -nan(ind)  -nan(ind)  -nan(ind)  -nan(ind)
  CDT-565                 1.00   -nan(ind)  -nan(ind)  -nan(ind)  -nan(ind)  -nan(ind)  -nan(ind)  -nan(ind)  -nan(ind)  -nan(ind)
  CDT-567                 1.00   -nan(ind)  -nan(ind)  -nan(ind)  -nan(ind)  -nan(ind)  -nan(ind)  -nan(ind)  -nan(ind)  -nan(ind)
  CDT-569                 1.00   -nan(ind)  -nan(ind)  -nan(ind)  -nan(ind)  -nan(ind)  -nan(ind)  -nan(ind)  -nan(ind)  -nan(ind)
  CDT-571                 1.00   -nan(ind)  -nan(ind)  -nan(ind)  -nan(ind)  -nan(ind)  -nan(ind)  -nan(ind)  -nan(ind)  -nan(ind)
  CDT-579                 1.00   -nan(ind)  -nan(ind)  -nan(ind)  -nan(ind)  -nan(ind)  -nan(ind)  -nan(ind)  -nan(ind)  -nan(ind)
  CDT-581                 1.00   -nan(ind)  -nan(ind)  -nan(ind)  -nan(ind)  -nan(ind)  -nan(ind)  -nan(ind)  -nan(ind)  -nan(ind)
  CDT-583                 1.00   -nan(ind)  -nan(ind)  -nan(ind)  -nan(ind)  -nan(ind)  -nan(ind)  -nan(ind)  -nan(ind)  -nan(ind)
  CDT-585                 1.00   -nan(ind)  -nan(ind)  -nan(ind)  -nan(ind)  -nan(ind)  -nan(ind)  -nan(ind)  -nan(ind)  -nan(ind)
  CDT-587                 1.00   -nan(ind)  -nan(ind)  -nan(ind)  -nan(ind)  -nan(ind)  -nan(ind)  -nan(ind)  -nan(ind)  -nan(ind)
  CDT-589                 1.00   -nan(ind)  -nan(ind)  -nan(ind)  -nan(ind)  -nan(ind)  -nan(ind)  -nan(ind)  -nan(ind)  -nan(ind)
  DUCK_LAKE_TRAIL         1.00   -nan(ind)  -nan(ind)  -nan(ind)  -nan(ind)  -nan(ind)  -nan(ind)  -nan(ind)  -nan(ind)  -nan(ind)
  KERBER_BLVD             1.39   -nan(ind)  -nan(ind)  -nan(ind)  -nan(ind)  -nan(ind)  -nan(ind)  -nan(ind)  -nan(ind)  -nan(ind)
  LL-10.13_OUTLET         1.00   -nan(ind)  -nan(ind)  -nan(ind)  -nan(ind)  -nan(ind)  -nan(ind)  -nan(ind)  -nan(ind)  -nan(ind)
  LL-10.16_CHANNEL        1.00   -nan(ind)  -nan(ind)  -nan(ind)  -nan(ind)  -nan(ind)  -nan(ind)  -nan(ind)  -nan(ind)  -nan(ind)
  LL-10.16_CHANNEL2       1.00   -nan(ind)  -nan(ind)  -nan(ind)  -nan(ind)  -nan(ind)  -nan(ind)  -nan(ind)  -nan(ind)  -nan(ind)
  LL-10.16_CHANNEL3       1.06   -nan(ind)  -nan(ind)  -nan(ind)  -nan(ind)  -nan(ind)  -nan(ind)  -nan(ind)  -nan(ind)  -nan(ind)
  LL-10.16_OUT2CHANNEL    1.00   -nan(ind)  -nan(ind)  -nan(ind)  -nan(ind)  -nan(ind)  -nan(ind)  -nan(ind)  -nan(ind)  -nan(ind)
  LL-10.16_STORMSEWERCHANNEL    1.00   -nan(ind)  -nan(ind)  -nan(ind)  -nan(ind)  -nan(ind)  -nan(ind)  -nan(ind)  -nan(ind)  -nan(ind)
  LL-10.9_CHANNEL_1       1.35   -nan(ind)  -nan(ind)  -nan(ind)  -nan(ind)  -nan(ind)  -nan(ind)  -nan(ind)  -nan(ind)  -nan(ind)
  LL-6.6_1                8.90   -nan(ind)  -nan(ind)  -nan(ind)  -nan(ind)  -nan(ind)  -nan(ind)  -nan(ind)  -nan(ind)  -nan(ind)
  LL-6.6_3L1              1.20   -nan(ind)  -nan(ind)  -nan(ind)  -nan(ind)  -nan(ind)  -nan(ind)  -nan(ind)  -nan(ind)  -nan(ind)
  LL-6.6_L2               1.00   -nan(ind)  -nan(ind)  -nan(ind)  -nan(ind)  -nan(ind)  -nan(ind)  -nan(ind)  -nan(ind)  -nan(ind)
  LL-7.5CHANNEL           1.00   -nan(ind)  -nan(ind)  -nan(ind)  -nan(ind)  -nan(ind)  -nan(ind)  -nan(ind)  -nan(ind)  -nan(ind)
  LL-8.1A_ORIFICE         2.06   -nan(ind)  -nan(ind)  -nan(ind)  -nan(ind)  -nan(ind)  -nan(ind)  -nan(ind)  -nan(ind)  -nan(ind)
  LL-8.1B_CHANNEL         1.34   -nan(ind)  -nan(ind)  -nan(ind)  -nan(ind)  -nan(ind)  -nan(ind)  -nan(ind)  -nan(ind)  -nan(ind)
  LL-8.1_DIVERSIONCHANNEL    1.16   -nan(ind)  -nan(ind)  -nan(ind)  -nan(ind)  -nan(ind)  -nan(ind)  -nan(ind)  -nan(ind)  -nan(ind)
  LL-8.1_DIVERSIONL1      1.00   -nan(ind)  -nan(ind)  -nan(ind)  -nan(ind)  -nan(ind)  -nan(ind)  -nan(ind)  -nan(ind)  -nan(ind)
  LL-8.1_DIVERSIONPIPE    2.64   -nan(ind)  -nan(ind)  -nan(ind)  -nan(ind)  -nan(ind)  -nan(ind)  -nan(ind)  -nan(ind)  -nan(ind)
  LL-8.1_DIVERSIONTOPOND    1.32   -nan(ind)  -nan(ind)  -nan(ind)  -nan(ind)  -nan(ind)  -nan(ind)  -nan(ind)  -nan(ind)  -nan(ind)
  LL-8.1_POND_CONNECTION    2.37   -nan(ind)  -nan(ind)  -nan(ind)  -nan(ind)  -nan(ind)  -nan(ind)  -nan(ind)  -nan(ind)  -nan(ind)
  LL-9.1_CHANNEL1         1.70   -nan(ind)  -nan(ind)  -nan(ind)  -nan(ind)  -nan(ind)  -nan(ind)  -nan(ind)  -nan(ind)  -nan(ind)
  LL-A1.5_OUTLETCHANNEL    1.00   -nan(ind)  -nan(ind)  -nan(ind)  -nan(ind)  -nan(ind)  -nan(ind)  -nan(ind)  -nan(ind)  -nan(ind)
  LL-A6.3_MARSH           1.00   -nan(ind)  -nan(ind)  -nan(ind)  -nan(ind)  -nan(ind)  -nan(ind)  -nan(ind)  -nan(ind)  -nan(ind)
  LL-A6.3_OUT             3.21   -nan(ind)  -nan(ind)  -nan(ind)  -nan(ind)  -nan(ind)  -nan(ind)  -nan(ind)  -nan(ind)  -nan(ind)
  LL-P1.1_OUTL1           4.45   -nan(ind)  -nan(ind)  -nan(ind)  -nan(ind)  -nan(ind)  -nan(ind)  -nan(ind)  -nan(ind)  -nan(ind)
  LL-P1.5_OUTL1           2.99   -nan(ind)  -nan(ind)  -nan(ind)  -nan(ind)  -nan(ind)  -nan(ind)  -nan(ind)  -nan(ind)  -nan(ind)
  LL-P10.11_OUTLET        1.00   -nan(ind)  -nan(ind)  -nan(ind)  -nan(ind)  -nan(ind)  -nan(ind)  -nan(ind)  -nan(ind)  -nan(ind)
  LL-P10.16_OUTLETL1     14.07   -nan(ind)  -nan(ind)  -nan(ind)  -nan(ind)  -nan(ind)  -nan(ind)  -nan(ind)  -nan(ind)  -nan(ind)
  LL-P10.16_OVERFLOWCHANNEL    3.41   -nan(ind)  -nan(ind)  -nan(ind)  -nan(ind)  -nan(ind)  -nan(ind)  -nan(ind)  -nan(ind)  -nan(ind)
  LL-P10.2_OUTL1          1.17   -nan(ind)  -nan(ind)  -nan(ind)  -nan(ind)  -nan(ind)  -nan(ind)  -nan(ind)  -nan(ind)  -nan(ind)
  LL-P10.7_OUTL1          1.00   -nan(ind)  -nan(ind)  -nan(ind)  -nan(ind)  -nan(ind)  -nan(ind)  -nan(ind)  -nan(ind)  -nan(ind)
  LL-P3.1L1               1.00   -nan(ind)  -nan(ind)  -nan(ind)  -nan(ind)  -nan(ind)  -nan(ind)  -nan(ind)  -nan(ind)  -nan(ind)
  LL-P3.1_OUTL1           1.00   -nan(ind)  -nan(ind)  -nan(ind)  -nan(ind)  -nan(ind)  -nan(ind)  -nan(ind)  -nan(ind)  -nan(ind)
  LL-P4.2L1               1.00   -nan(ind)  -nan(ind)  -nan(ind)  -nan(ind)  -nan(ind)  -nan(ind)  -nan(ind)  -nan(ind)  -nan(ind)
  LL-P4.3_OUTFALL         1.21   -nan(ind)  -nan(ind)  -nan(ind)  -nan(ind)  -nan(ind)  -nan(ind)  -nan(ind)  -nan(ind)  -nan(ind)
  LL-P5.1A_OUTLET         1.00   -nan(ind)  -nan(ind)  -nan(ind)  -nan(ind)  -nan(ind)  -nan(ind)  -nan(ind)  -nan(ind)  -nan(ind)
  LL-P6.2L1               1.32   -nan(ind)  -nan(ind)  -nan(ind)  -nan(ind)  -nan(ind)  -nan(ind)  -nan(ind)  -nan(ind)  -nan(ind)
  LL10.4_OUTLET           1.00   -nan(ind)  -nan(ind)  -nan(ind)  -nan(ind)  -nan(ind)  -nan(ind)  -nan(ind)  -nan(ind)  -nan(ind)
  LL_10.15_OUTLET         1.00   -nan(ind)  -nan(ind)  -nan(ind)  -nan(ind)  -nan(ind)  -nan(ind)  -nan(ind)  -nan(ind)  -nan(ind)
  LL_10.16_OUTL1          2.07   -nan(ind)  -nan(ind)  -nan(ind)  -nan(ind)  -nan(ind)  -nan(ind)  -nan(ind)  -nan(ind)  -nan(ind)
  LL_10.6_OUTLET          1.00   -nan(ind)  -nan(ind)  -nan(ind)  -nan(ind)  -nan(ind)  -nan(ind)  -nan(ind)  -nan(ind)  -nan(ind)
  LL_6.6_PIPE_OUTLET      5.98   -nan(ind)  -nan(ind)  -nan(ind)  -nan(ind)  -nan(ind)  -nan(ind)  -nan(ind)  -nan(ind)  -nan(ind)
  LL_OUTLET_STRUCT        1.00   -nan(ind)  -nan(ind)  -nan(ind)  -nan(ind)  -nan(ind)  -nan(ind)  -nan(ind)  -nan(ind)  -nan(ind)
  LOTUSLAKE_OUTLET        1.00   -nan(ind)  -nan(ind)  -nan(ind)  -nan(ind)  -nan(ind)  -nan(ind)  -nan(ind)  -nan(ind)  -nan(ind)
  MH1_7.3L1               1.00   -nan(ind)  -nan(ind)  -nan(ind)  -nan(ind)  -nan(ind)  -nan(ind)  -nan(ind)  -nan(ind)  -nan(ind)
  MH1_7.3L2               1.17   -nan(ind)  -nan(ind)  -nan(ind)  -nan(ind)  -nan(ind)  -nan(ind)  -nan(ind)  -nan(ind)  -nan(ind)
  MH2_7.3L1               1.89   -nan(ind)  -nan(ind)  -nan(ind)  -nan(ind)  -nan(ind)  -nan(ind)  -nan(ind)  -nan(ind)  -nan(ind)
  MH2_7.3L2               1.96   -nan(ind)  -nan(ind)  -nan(ind)  -nan(ind)  -nan(ind)  -nan(ind)  -nan(ind)  -nan(ind)  -nan(ind)
  MH3_7.3L2               1.01   -nan(ind)  -nan(ind)  -nan(ind)  -nan(ind)  -nan(ind)  -nan(ind)  -nan(ind)  -nan(ind)  -nan(ind)
  MH3_7.3_L1              1.00   -nan(ind)  -nan(ind)  -nan(ind)  -nan(ind)  -nan(ind)  -nan(ind)  -nan(ind)  -nan(ind)  -nan(ind)
  MH4_7.3L1               1.00   -nan(ind)  -nan(ind)  -nan(ind)  -nan(ind)  -nan(ind)  -nan(ind)  -nan(ind)  -nan(ind)  -nan(ind)
  MH4_7.3L2               1.00   -nan(ind)  -nan(ind)  -nan(ind)  -nan(ind)  -nan(ind)  -nan(ind)  -nan(ind)  -nan(ind)  -nan(ind)
  OUTLET_4_CALIBRATION    2.16   -nan(ind)  -nan(ind)  -nan(ind)  -nan(ind)  -nan(ind)  -nan(ind)  -nan(ind)  -nan(ind)  -nan(ind)
  PURG9                   1.00   -nan(ind)  -nan(ind)  -nan(ind)  -nan(ind)  -nan(ind)  -nan(ind)  -nan(ind)  -nan(ind)  -nan(ind)
  PURG_13                 1.00   -nan(ind)  -nan(ind)  -nan(ind)  -nan(ind)  -nan(ind)  -nan(ind)  -nan(ind)  -nan(ind)  -nan(ind)
  PURG_BRANCH_L1          1.00   -nan(ind)  -nan(ind)  -nan(ind)  -nan(ind)  -nan(ind)  -nan(ind)  -nan(ind)  -nan(ind)  -nan(ind)
  PURG_DELLROAD_CULVERT    1.17   -nan(ind)  -nan(ind)  -nan(ind)  -nan(ind)  -nan(ind)  -nan(ind)  -nan(ind)  -nan(ind)  -nan(ind)
  PURG_DUCKLAKE_CULVERT    1.77   -nan(ind)  -nan(ind)  -nan(ind)  -nan(ind)  -nan(ind)  -nan(ind)  -nan(ind)  -nan(ind)  -nan(ind)
  PURG_L1                 2.59   -nan(ind)  -nan(ind)  -nan(ind)  -nan(ind)  -nan(ind)  -nan(ind)  -nan(ind)  -nan(ind)  -nan(ind)
  PURG_L2                 4.29   -nan(ind)  -nan(ind)  -nan(ind)  -nan(ind)  -nan(ind)  -nan(ind)  -nan(ind)  -nan(ind)  -nan(ind)
  PURG_L3                 3.10   -nan(ind)  -nan(ind)  -nan(ind)  -nan(ind)  -nan(ind)  -nan(ind)  -nan(ind)  -nan(ind)  -nan(ind)
  PURG_L4                 3.68   -nan(ind)  -nan(ind)  -nan(ind)  -nan(ind)  -nan(ind)  -nan(ind)  -nan(ind)  -nan(ind)  -nan(ind)
  PURG_L5                 1.00   -nan(ind)  -nan(ind)  -nan(ind)  -nan(ind)  -nan(ind)  -nan(ind)  -nan(ind)  -nan(ind)  -nan(ind)
  PURG_L6                 1.00   -nan(ind)  -nan(ind)  -nan(ind)  -nan(ind)  -nan(ind)  -nan(ind)  -nan(ind)  -nan(ind)  -nan(ind)
  PURG_L7                 1.00   -nan(ind)  -nan(ind)  -nan(ind)  -nan(ind)  -nan(ind)  -nan(ind)  -nan(ind)  -nan(ind)  -nan(ind)
  PURG_OUTLET             4.92   -nan(ind)  -nan(ind)  -nan(ind)  -nan(ind)  -nan(ind)  -nan(ind)  -nan(ind)  -nan(ind)  -nan(ind)
  PURG_TARTAN_CULVERT     1.00   -nan(ind)  -nan(ind)  -nan(ind)  -nan(ind)  -nan(ind)  -nan(ind)  -nan(ind)  -nan(ind)  -nan(ind)
  PURG_TOWNLINEROAD       3.04   -nan(ind)  -nan(ind)  -nan(ind)  -nan(ind)  -nan(ind)  -nan(ind)  -nan(ind)  -nan(ind)  -nan(ind)
  TARTAN_ROAD             1.00   -nan(ind)  -nan(ind)  -nan(ind)  -nan(ind)  -nan(ind)  -nan(ind)  -nan(ind)  -nan(ind)  -nan(ind)
  
  
  *************************
  Conduit Surcharge Summary
  *************************
  
  No conduits were surcharged.
  

  Analysis begun on:  Sat Nov 30 08:11:43 2019
  Analysis ended on:  Sat Nov 30 08:11:44 2019
  Total elapsed time: 00:00:01