
  EPA STORM WATER MANAGEMENT MODEL - VERSION 5.1 (Build 5.1.013)
  --------------------------------------------------------------

  WARNING 01: wet weather time step reduced to recording interval for Rain Gage DESIGNSTORM
  WARNING 04: minimum elevation drop used for Conduit 10.16_OPENCHANNEL
  WARNING 04: minimum elevation drop used for Conduit 192ND_STREET
  WARNING 04: minimum elevation drop used for Conduit 3009L1
  WARNING 04: minimum elevation drop used for Conduit 4.4_CHANNEL
  WARNING 04: minimum elevation drop used for Conduit CDT-527
  WARNING 04: minimum elevation drop used for Conduit DUCK_LAKE_TRAIL
  WARNING 04: minimum elevation drop used for Conduit KERBER_BLVD
  WARNING 04: minimum elevation drop used for Conduit LL-10.13_OUTLET
  WARNING 04: minimum elevation drop used for Conduit LL-8.1A_ORIFICE
  WARNING 04: minimum elevation drop used for Conduit MH4_7.3L2
  WARNING 04: minimum elevation drop used for Conduit OUTLET_4_CALIBRATION
  WARNING 04: minimum elevation drop used for Conduit PURG_L2
  WARNING 04: minimum elevation drop used for Conduit PURG_L3
  WARNING 04: minimum elevation drop used for Conduit PURG_L4
  WARNING 04: minimum elevation drop used for Conduit PURG_OUTLET
  WARNING 04: minimum elevation drop used for Conduit TARTAN_ROAD
  WARNING 02: maximum depth increased for Node 10.16_OUTLET_CHANNEL
  WARNING 02: maximum depth increased for Node 9_1_B
  WARNING 02: maximum depth increased for Node 9_1_CHANNEL1
  WARNING 02: maximum depth increased for Node 9_1_OUT
  WARNING 02: maximum depth increased for Node DS_DELLROAD
  WARNING 02: maximum depth increased for Node DS_TOWNLINEROAD
  WARNING 02: maximum depth increased for Node JCT-90
  WARNING 02: maximum depth increased for Node LL-10.16_MH3
  WARNING 02: maximum depth increased for Node LL-10.17_INFLOW
  WARNING 02: maximum depth increased for Node LL-10.9_CHANNEL
  WARNING 02: maximum depth increased for Node LL-3.2_CHANNEL
  WARNING 02: maximum depth increased for Node LL-3.2_CHANNEL1
  WARNING 02: maximum depth increased for Node LL-6.6_2
  WARNING 02: maximum depth increased for Node LL-6.6_3
  WARNING 02: maximum depth increased for Node LL-8.1DIVERSIONCHANNEL
  WARNING 02: maximum depth increased for Node LOTUSLAKEOUTLET_FORCALIBRATION
  WARNING 02: maximum depth increased for Node POND3.1_OUTFALL
  WARNING 02: maximum depth increased for Node PURG13A
  WARNING 02: maximum depth increased for Node PURG13B
  WARNING 02: maximum depth increased for Node PURG14_C
  WARNING 02: maximum depth increased for Node PURGATORY_10
  WARNING 02: maximum depth increased for Node PURGATORY_10_A
  WARNING 02: maximum depth increased for Node PURGATORY_10_B
  WARNING 02: maximum depth increased for Node PURGATORY_11
  WARNING 02: maximum depth increased for Node PURGATORY_11_A
  WARNING 02: maximum depth increased for Node PURGATORY_11_B
  WARNING 02: maximum depth increased for Node PURGATORY_5
  WARNING 02: maximum depth increased for Node PURGATORY_6
  WARNING 02: maximum depth increased for Node PURGATORY_7
  WARNING 02: maximum depth increased for Node PURGATORY_8
  WARNING 02: maximum depth increased for Node PURGATORY_9
  WARNING 02: maximum depth increased for Node PURG_DS_DUCK
  WARNING 02: maximum depth increased for Node PURG_US_DELL
  WARNING 02: maximum depth increased for Node PURG_US_DUCK
  WARNING 02: maximum depth increased for Node US_KERBER_CULVERT
  WARNING 02: maximum depth increased for Node US_TOWNLINE
  WARNING 02: maximum depth increased for Node US_TOWNLINEROAD
  
  *********************************************************
  NOTE: The summary statistics displayed in this report are
  based on results found at every computational time step,  
  not just on results from each reporting time step.
  *********************************************************
  
  ****************
  Analysis Options
  ****************
  Flow Units ............... CFS
  Process Models:
    Rainfall/Runoff ........ YES
    RDII ................... NO
    Snowmelt ............... NO
    Groundwater ............ NO
    Flow Routing ........... YES
    Ponding Allowed ........ NO
    Water Quality .......... NO
  Infiltration Method ...... HORTON
  Flow Routing Method ...... DYNWAVE
  Surcharge Method ......... EXTRAN
  Starting Date ............ 05/01/2003 00:00:00
  Ending Date .............. 06/01/2003 23:00:00
  Antecedent Dry Days ...... 5.0
  Report Time Step ......... 00:15:00
  Wet Time Step ............ 00:15:00
  Dry Time Step ............ 23:00:00
  Routing Time Step ........ 10.00 sec
  Variable Time Step ....... YES
  Maximum Trials ........... 8
  Number of Threads ........ 8
  Head Tolerance ........... 0.005000 ft
  
  
  **************************        Volume         Depth
  Runoff Quantity Continuity     acre-feet        inches
  **************************     ---------       -------
  Total Precipitation ......      1154.135         5.760
  Evaporation Loss .........       100.334         0.501
  Infiltration Loss ........       755.942         3.773
  Surface Runoff ...........       306.027         1.527
  Final Storage ............         0.000         0.000
  Continuity Error (%) .....        -0.708
  
  
  **************************        Volume        Volume
  Flow Routing Continuity        acre-feet      10^6 gal
  **************************     ---------     ---------
  Dry Weather Inflow .......         0.000         0.000
  Wet Weather Inflow .......       305.966        99.704
  Groundwater Inflow .......         0.000         0.000
  RDII Inflow ..............         0.000         0.000
  External Inflow ..........       253.544        82.621
  External Outflow .........       560.942       182.791
  Flooding Loss ............         0.000         0.000
  Evaporation Loss .........        16.552         5.394
  Exfiltration Loss ........         0.000         0.000
  Initial Stored Volume ....      3505.090      1142.186
  Final Stored Volume ......      3519.665      1146.935
  Continuity Error (%) .....        -0.801
  
  
  *************************
  Highest Continuity Errors
  *************************
  Node LL-6.6_2 (-9.59%)
  Node LL-8.1_MH1 (8.05%)
  Node LL-6.6_1 (-6.03%)
  Node 9_1_OUT (-3.81%)
  Node LL-A10.16_OUTLET (2.43%)
  
  
  ***************************
  Time-Step Critical Elements
  ***************************
  Link LL_OUTLET_STRUCT (80.62%)
  Link LL-10.9_CHANNEL_1 (11.87%)
  Link 3009L1 (2.51%)
  Link 10.16_OPENCHANNEL (2.51%)
  Link 2583L1 (1.11%)
  
  
  ********************************
  Highest Flow Instability Indexes
  ********************************
  Link LL-P10.6_WEIROUTLET (41)
  Link LL-8.1A_ORIFICE (36)
  Link LL-8.1A_WEIR (4)
  Link LL-8.1_POND_CONNECTION (3)
  Link LL10.4_OUTLET (3)
  
  
  *************************
  Routing Time Step Summary
  *************************
  Minimum Time Step           :     1.15 sec
  Average Time Step           :     7.56 sec
  Maximum Time Step           :    10.00 sec
  Percent in Steady State     :     0.00
  Average Iterations per Step :     2.05
  Percent Not Converging      :     0.21
  
  
  ***************************
  Subcatchment Runoff Summary
  ***************************
  
  ------------------------------------------------------------------------------------------------------------------------------
                            Total      Total      Total      Total     Imperv       Perv      Total       Total     Peak  Runoff
                           Precip      Runon       Evap      Infil     Runoff     Runoff     Runoff      Runoff   Runoff   Coeff
  Subcatchment                 in         in         in         in         in         in         in    10^6 gal      CFS
  ------------------------------------------------------------------------------------------------------------------------------
  LL-6.5A                    5.76       0.00       0.54       4.03       1.25       0.00       1.25        0.08     0.58   0.217
  LL-6.5B                    5.76       0.00       0.54       4.03       1.25       0.00       1.25        0.13     0.92   0.217
  LL-A1.1                    5.76       0.00       0.48       4.21       1.12       0.00       1.12        0.21     1.47   0.195
  LL-A1.2                    5.76       0.00       0.45       4.31       1.05       0.00       1.05        0.23     1.62   0.182
  LL-A1.3                    5.76       0.00       0.52       4.09       1.20       0.00       1.20        0.36     2.53   0.209
  LL-A1.4                    5.76       0.00       0.50       4.14       1.17       0.00       1.17        0.46     3.26   0.204
  LL-A1.5                    5.76       0.00       0.50       4.16       1.15       0.00       1.15        0.59     4.21   0.200
  LL-A1.6                    5.76       0.00       0.53       4.04       1.25       0.00       1.25        0.41     2.91   0.216
  LL-A10.1                   5.76       0.00       0.18       5.18       0.42       0.00       0.42        0.14     0.96   0.073
  LL-A10.10                  5.76       0.00       0.99       2.61       2.22       0.00       2.22        1.21     8.74   0.386
  LL-A10.11                  5.76       0.00       0.40       4.48       0.93       0.00       0.93        0.33     2.32   0.161
  LL-A10.13                  5.76       0.00       0.54       4.04       1.23       0.00       1.23        1.80    12.93   0.213
  LL-A10.15                  5.76       0.00       0.54       4.03       1.24       0.00       1.24        0.41     2.90   0.215
  LL-A10.16                  5.76       0.00       0.53       4.04       1.24       0.00       1.24        0.44     3.14   0.214
  LL-A10.16A                 5.76       0.00       0.50       4.14       1.16       0.00       1.16        0.75     5.32   0.201
  LL-A10.17                  5.76       0.00       0.51       4.13       1.17       0.00       1.17        0.70     5.01   0.204
  LL-A10.2                   5.76       0.00       0.34       4.67       0.78       0.00       0.78        0.75     5.32   0.136
  LL-A10.4                   5.76       0.00       0.63       3.75       1.44       0.00       1.44        1.34     9.61   0.249
  LL-A10.6                   5.76       0.00       0.58       3.89       1.33       0.00       1.33        0.97     6.90   0.232
  LL-A10.7                   5.76       0.00       0.54       4.03       1.24       0.00       1.24        0.42     3.00   0.215
  LL-A10.8                   5.76       0.00       0.54       4.03       1.25       0.00       1.25        0.16     1.10   0.217
  LL-A10.9                   5.76       0.00       0.66       3.65       1.52       0.00       1.52        0.71     5.07   0.263
  LL-A10.9A                  5.76       0.00       0.75       3.38       1.69       0.00       1.69        2.19    15.79   0.293
  LL-A11.1                   5.76       0.00       0.51       4.12       1.18       0.00       1.18        0.64     4.52   0.205
  LL-A11.2                   5.76       0.00       0.45       4.31       1.05       0.00       1.05        0.76     5.33   0.182
  LL-A2.2                    5.76       0.00       0.49       4.17       1.15       0.00       1.15        0.37     2.64   0.199
  LL-A2.3                    5.76       0.00       0.54       4.03       1.25       0.00       1.25        0.37     2.65   0.217
  LL-A2.4                    5.76       0.00       0.52       4.10       1.20       0.00       1.20        0.54     3.82   0.208
  LL-A2.5                    5.76       0.00       0.57       3.94       1.31       0.00       1.31        0.33     2.36   0.228
  LL-A3.1                    5.76       0.00       0.68       3.57       1.56       0.00       1.56        1.55    11.14   0.271
  LL-A3.2                    5.76       0.00       0.41       4.45       0.94       0.00       0.94        1.04     7.39   0.163
  LL-A3.2A                   5.76       0.00       0.32       4.72       0.76       0.00       0.76        0.18     1.25   0.131
  LL-A3.2B                   5.76       0.00       0.54       4.03       1.25       0.00       1.25        0.11     0.75   0.217
  LL-A3.2C                   5.76       0.00       0.53       4.05       1.24       0.00       1.24        0.33     2.32   0.215
  LL-A4.1                    5.76       0.00       0.45       4.33       1.03       0.00       1.03        0.74     5.26   0.179
  LL-A4.2                    5.76       0.00       0.54       4.03       1.24       0.00       1.24        0.29     2.06   0.216
  LL-A4.3                    5.76       0.00       0.54       4.03       1.24       0.00       1.24        0.27     1.91   0.216
  LL-A4.4                    5.76       0.00       0.34       4.67       0.79       0.00       0.79        0.42     2.95   0.137
  LL-A4.4A                   5.76       0.00       0.54       4.03       1.24       0.00       1.24        0.44     3.13   0.216
  LL-A5.1                    5.76       0.00       0.46       4.28       1.06       0.00       1.06        0.80     5.68   0.184
  LL-A5.1A                   5.76       0.00       0.54       4.03       1.24       0.00       1.24        0.47     3.37   0.215
  LL-A5.1B                   5.76       0.00       0.54       4.03       1.25       0.00       1.25        0.28     1.97   0.216
  LL-A5.2                    5.76       0.00       0.50       4.15       1.16       0.00       1.16        0.30     2.12   0.202
  LL-A5.3                    5.76       0.00       0.54       4.02       1.25       0.00       1.25        0.44     3.11   0.217
  LL-A6.1                    5.76       0.00       0.53       4.05       1.23       0.00       1.23        0.36     2.57   0.214
  LL-A6.1B                   5.76       0.00       0.54       4.03       1.25       0.00       1.25        0.20     1.38   0.216
  LL-A6.2                    5.76       0.00       0.48       4.21       1.12       0.00       1.12        0.10     0.72   0.195
  LL-A6.2A                   5.76       0.00       0.54       4.03       1.26       0.00       1.26        0.03     0.19   0.218
  LL-A6.3                    5.76       0.00       0.48       4.20       1.14       0.00       1.14        0.09     0.61   0.197
  LL-A6.3A                   5.76       0.00       0.54       4.03       1.26       0.00       1.26        0.01     0.10   0.219
  LL-A6.4                    5.76       0.00       0.44       4.34       1.03       0.00       1.03        0.14     0.96   0.178
  LL-A6.5                    5.76       0.00       0.54       4.03       1.25       0.00       1.25        0.21     1.50   0.218
  LL-A6.6                    5.76       0.00       0.54       4.04       1.24       0.00       1.24        0.39     2.75   0.216
  LL-A6.6A                   5.76       0.00       0.54       4.03       1.26       0.00       1.26        0.28     1.98   0.218
  LL-A6.7                    5.76       0.00       0.47       4.26       1.08       0.00       1.08        0.60     4.28   0.187
  LL-A7.1                    5.76       0.00       0.54       4.03       1.23       0.00       1.23        0.79     5.64   0.213
  LL-A7.2                    5.76       0.00       0.54       4.03       1.24       0.00       1.24        0.89     6.32   0.215
  LL-A7.3                    5.76       0.00       0.54       4.01       1.25       0.00       1.25        0.65     4.62   0.218
  LL-A7.4                    5.76       0.00       0.49       4.18       1.13       0.00       1.13        0.49     3.51   0.195
  LL-A7.5                    5.76       0.00       0.45       4.32       1.03       0.00       1.03        1.02     7.28   0.179
  LL-A8.1                    5.76       0.00       0.54       4.03       1.25       0.00       1.25        0.58     4.11   0.217
  LL-A8.1A                   5.76       0.00       0.54       4.03       1.26       0.00       1.26        0.18     1.24   0.218
  LL-A8.2                    5.76       0.00       0.52       4.09       1.20       0.00       1.20        0.87     6.20   0.208
  LL-A9.1                    5.76       0.00       0.63       3.73       1.45       0.00       1.45        2.31    16.57   0.251
  LL-A9.2                    5.76       0.00       0.53       4.05       1.23       0.00       1.23        0.60     4.27   0.214
  LL-P10.16B                 5.76       0.00       0.30       4.81       0.69       0.00       0.69        0.16     1.10   0.120
  LOTUSLAKE                  5.76       0.00       0.60       0.13       5.05       0.00       5.05       34.10   153.72   0.877
  PURG_1                     5.76       0.00       0.46       4.30       1.03       0.00       1.03        5.16    37.16   0.180
  PURG_10                    5.76       0.00       0.48       4.23       1.10       0.00       1.10        1.94    13.84   0.190
  PURG_12                    5.76       0.00       0.51       4.11       1.17       0.00       1.17        2.66    19.12   0.203
  PURG_2                     5.76       0.00       0.50       4.17       1.13       0.00       1.13        3.95    28.37   0.197
  PURG_3                     5.76       0.00       0.56       3.96       1.28       0.00       1.28        3.39    24.42   0.221
  PURG_4                     5.76       0.00       0.45       4.32       1.03       0.00       1.03        2.02    14.42   0.179
  PURG_5                     5.76       0.00       0.21       5.09       0.49       0.00       0.49        0.75     5.27   0.084
  PURG_6                     5.76       0.00       0.54       4.04       1.23       0.00       1.23        2.09    14.90   0.213
  PURG_7                     5.76       0.00       0.20       5.12       0.46       0.00       0.46        0.85     6.05   0.080
  PURG_8                     5.76       0.00       0.60       3.82       1.39       0.00       1.39        0.56     3.98   0.242
  PURG_9                     5.76       0.00       0.22       5.06       0.51       0.00       0.51        0.99     7.04   0.088
  PUR_11                     5.76       0.00       0.55       3.99       1.27       0.00       1.27        2.00    14.32   0.220
  SUB-632                    5.76       0.00       0.50       4.15       1.13       0.00       1.13        2.86    20.61   0.197
  
  
  ******************
  Node Depth Summary
  ******************
  
  ---------------------------------------------------------------------------------
                                 Average  Maximum  Maximum  Time of Max    Reported
                                   Depth    Depth      HGL   Occurrence   Max Depth
  Node                 Type         Feet     Feet     Feet  days hr:min        Feet
  ---------------------------------------------------------------------------------
  10.16_CHANNEL1       JUNCTION     0.14     0.86   936.85    18  13:24        0.83
  10.16_OUTLET_CHANNEL JUNCTION     0.19     0.81   918.35    18  15:28        0.81
  2533                 JUNCTION     0.07     0.40   988.27    18  13:14        0.40
  2534                 JUNCTION     0.09     0.54   986.34    18  13:03        0.53
  2537                 JUNCTION     0.07     0.42   985.16    18  13:04        0.41
  2541                 JUNCTION     0.07     0.41   979.67    18  13:04        0.40
  2542                 JUNCTION     0.05     0.30   981.81    18  13:04        0.29
  2558                 JUNCTION     0.01     0.46   983.22    18  09:30        0.46
  2560                 JUNCTION     0.01     0.58   981.77    18  09:30        0.57
  2561                 JUNCTION     0.16     1.20   982.25    18  09:30        1.20
  2582                 JUNCTION     0.04     0.42   910.52    18  13:21        0.42
  2583                 JUNCTION     0.03     0.35   911.10    18  13:20        0.35
  2585                 JUNCTION     0.04     0.50   906.85    18  13:22        0.50
  2586                 JUNCTION     0.02     0.21   905.12    18  13:22        0.21
  3008                 JUNCTION     0.07     1.13   955.21    18  09:32        1.10
  3009                 JUNCTION     0.60     1.94   952.07    18  13:28        1.94
  3011                 JUNCTION     0.09     0.39   973.95    18  14:16        0.39
  3012                 JUNCTION     0.04     0.18   969.87    18  14:16        0.18
  3069                 JUNCTION     0.13     1.26   930.21    18  13:24        1.16
  3085                 JUNCTION     0.01     0.36   949.70    18  09:30        0.36
  3168                 JUNCTION     0.01     0.35   962.25    18  09:32        0.34
  3170                 JUNCTION     0.01     0.64   968.23    18  09:32        0.62
  3171                 JUNCTION     0.01     0.57   968.89    18  09:31        0.55
  3173                 JUNCTION     0.01     0.48   973.30    18  09:31        0.47
  3174                 JUNCTION     0.01     0.53   971.87    18  09:31        0.52
  3177                 JUNCTION     0.01     0.72   975.12    18  09:31        0.71
  3181                 JUNCTION     0.01     0.54   966.76    18  09:30        0.53
  3182                 JUNCTION     0.01     0.50   965.24    18  09:30        0.50
  3183                 JUNCTION     0.02     0.76   954.65    18  09:30        0.76
  3193                 JUNCTION     0.03     0.56   916.76    18  09:37        0.52
  3531                 JUNCTION     0.01     0.21   926.76    18  09:31        0.21
  3532                 JUNCTION     0.01     0.25   934.11    18  09:31        0.25
  3533                 JUNCTION     0.01     0.42   934.93    18  09:30        0.41
  3534                 JUNCTION     0.01     0.28   937.06    18  09:30        0.28
  3535                 JUNCTION     0.01     0.31   938.74    18  09:30        0.31
  3536                 JUNCTION     0.01     0.20   918.54    18  09:31        0.20
  3537                 JUNCTION     0.01     0.62   917.19    18  09:30        0.62
  4.3_OUTFALL          JUNCTION     0.54     1.44   901.44    18  13:49        1.44
  4.4MARSH_OUT1        JUNCTION     0.05     0.35   896.92    18  15:14        0.35
  5107                 JUNCTION     0.01     0.35   902.64    18  09:28        0.35
  5109                 JUNCTION     0.02     0.56   902.16    18  10:03        0.56
  5114                 JUNCTION     0.28     0.90   901.66    18  10:59        0.85
  5115                 JUNCTION     0.03     0.43   901.64    18  14:39        0.43
  5130                 JUNCTION     0.12     0.89   899.65    18  09:33        0.87
  5131                 JUNCTION     0.02     0.52   899.34    18  09:33        0.51
  5132                 JUNCTION     0.02     0.54   899.85    18  09:32        0.53
  5133                 JUNCTION     0.03     0.65   900.23    18  09:32        0.64
  5134                 JUNCTION     0.02     0.38   900.52    18  09:32        0.37
  5137                 JUNCTION     0.40     1.29   901.08    18  09:32        1.28
  5139                 JUNCTION     0.02     0.44   902.13    18  10:14        0.44
  5140                 JUNCTION     0.01     0.30   902.54    18  10:13        0.30
  5144                 JUNCTION     0.01     0.29   908.01    18  10:03        0.29
  5145                 JUNCTION     0.01     0.24   907.65    18  10:12        0.24
  5146                 JUNCTION     0.01     0.22   915.60    18  10:16        0.22
  5147                 JUNCTION     0.01     0.22   923.33    18  10:16        0.22
  5149                 JUNCTION     0.01     0.22   935.48    18  10:16        0.22
  5150                 JUNCTION     0.01     0.18   996.46    18  10:15        0.18
  5151                 JUNCTION     0.01     0.23   958.71    18  10:16        0.23
  5152                 JUNCTION     0.01     0.23   910.02    18  10:03        0.23
  5153                 JUNCTION     1.18     1.81   902.77    18  10:13        1.81
  5157                 JUNCTION     0.01     0.42   999.68    18  09:30        0.42
  5158                 JUNCTION     0.33     0.63   997.64    18  09:30        0.63
  5177                 JUNCTION     0.01     0.19   941.63    18  10:25        0.19
  5184                 JUNCTION     0.02     0.32   945.44    18  10:24        0.32
  5185                 JUNCTION     0.02     0.31   944.50    18  10:24        0.31
  5186                 JUNCTION     0.02     0.36   942.93    18  10:25        0.36
  5187                 JUNCTION     0.02     0.30   946.54    18  10:24        0.30
  5188                 JUNCTION     0.02     0.30   947.70    18  10:23        0.30
  5189                 JUNCTION     0.02     0.34   948.57    18  10:23        0.34
  5190                 JUNCTION     0.02     0.27   949.17    18  10:22        0.27
  5261                 JUNCTION     0.07     0.28   995.43    18  13:40        0.28
  5262                 JUNCTION     0.06     0.25   995.07    18  13:41        0.25
  5272                 JUNCTION     0.07     1.04   965.27    18  09:30        1.03
  5276                 JUNCTION     0.07     1.03   967.26    18  09:30        1.02
  5279                 JUNCTION     0.07     1.03   963.91    18  09:31        1.01
  5281                 JUNCTION     0.07     1.19   964.42    18  09:30        1.16
  5287                 JUNCTION     0.08     1.18   962.28    18  09:31        1.14
  5289                 JUNCTION     0.16     1.93   956.19    18  09:32        1.88
  5290                 JUNCTION     0.08     1.40   956.12    18  09:31        1.38
  5291                 JUNCTION     0.07     1.16   959.99    18  09:32        1.11
  5306                 JUNCTION     0.07     1.07   969.05    18  09:30        1.06
  5308                 JUNCTION     0.06     0.39   969.35    18  13:06        0.38
  5311                 JUNCTION     0.05     0.35   973.72    18  13:06        0.34
  5312                 JUNCTION     0.07     0.41   974.62    18  13:05        0.40
  5314                 JUNCTION     0.06     0.39   977.35    18  13:05        0.38
  5315                 JUNCTION     0.06     0.41   978.24    18  13:04        0.40
  5385                 JUNCTION     0.01     0.27   902.13    18  09:30        0.27
  5388                 JUNCTION     0.02     1.05   899.29    18  13:28        0.90
  5391                 JUNCTION     0.01     0.22   905.67    18  09:45        0.22
  5400                 JUNCTION     0.01     0.28   911.37    18  09:30        0.28
  5401                 JUNCTION     0.01     0.30   910.67    18  09:30        0.30
  6433                 JUNCTION     0.01     0.37   978.41    18  09:40        0.36
  6434                 JUNCTION     0.02     0.57   985.11    18  09:39        0.56
  7553                 JUNCTION     0.78     1.01   996.01    18  13:40        1.01
  8146                 JUNCTION     0.02     0.21   921.62    18  13:32        0.21
  8191                 JUNCTION     0.20     1.36   897.88    18  10:40        1.36
  9_1_B                JUNCTION     0.01     0.18   922.26     0  00:04        0.09
  9_1_CHANNEL1         JUNCTION     0.01     0.70   932.49     0  00:01        0.06
  9_1_OUT              JUNCTION     0.01     2.12   946.18     0  00:00        0.04
  9_2_CHANNEL1         JUNCTION     0.01     0.05   908.80     0  00:17        0.05
  DS_DELLROAD          JUNCTION     0.95     1.28   880.40    18  10:50        1.28
  DS_KERBERCULVERT     JUNCTION     0.16     1.09   937.08    18  13:20        1.07
  DS_TOWNLINEROAD      JUNCTION     1.21     2.06   865.94    18  17:04        2.06
  JCT-72               JUNCTION     0.81     2.87   919.07    18  09:38        2.78
  JCT-90               JUNCTION     0.30     0.78   879.78    18  09:42        0.77
  KERBER_CULVERT_1     JUNCTION     0.18     2.70   938.81    18  13:18        2.20
  LL-10.16_MH2         JUNCTION     0.14     0.74   917.57    18  15:28        0.74
  LL-10.16_MH3         JUNCTION     0.05     0.29   915.32    18  15:28        0.29
  LL-10.16_OUTLETPIPE  JUNCTION     2.64     3.71   919.77    18  14:31        3.71
  LL-10.17_INFLOW      JUNCTION     0.02     0.13   898.13    18  16:01        0.13
  LL-10.9_CHANNEL      JUNCTION     0.58     2.14   950.33    18  14:40        2.10
  LL-3.2CHANNEL3       JUNCTION     0.02     0.04   899.59    11  04:22        0.04
  LL-3.2_CHANNEL       JUNCTION     0.06     0.11   903.49    18  13:30        0.11
  LL-3.2_CHANNEL1      JUNCTION     0.04     0.08   907.25    18  13:21        0.08
  LL-6.6_1             JUNCTION     0.01     0.64   900.99     0  00:00        0.22
  LL-6.6_2             JUNCTION     0.01     0.97   917.23     0  00:00        0.17
  LL-6.6_3             JUNCTION     0.01     0.64   906.28     0  00:01        0.20
  LL-7.5_CHANNEL       JUNCTION     0.03     0.61   908.61    18  09:58        0.61
  LL-8.1B_CHANNEL      JUNCTION     0.01     0.28   911.28    18  09:49        0.27
  LL-8.1B_OUTLET       JUNCTION     8.94    10.84   912.88    18  09:44       10.84
  LL-8.1DIVERSIONCHANNEL JUNCTION     0.00     0.12   910.47     9  13:56        0.11
  LL-8.1_DIVERSION     JUNCTION     0.00     1.53   920.91    10  12:42        1.45
  LL-8.1_MH1           JUNCTION     0.00     0.83   919.33    10  12:42        0.70
  LL-A10.16_OUTLET     JUNCTION     0.71     2.28   920.36    18  14:31        2.28
  LL-P5.1A_OUT         JUNCTION     0.03     0.36   913.53    18  13:20        0.36
  LL-P6.1_CHANNEL      JUNCTION     0.02     0.29   897.05    18  13:29        0.28
  LL-P6.3_OUT_DS       JUNCTION     0.07     1.00   899.00    18  13:26        0.97
  LL_10.16-CHANNEL1    JUNCTION     0.04     0.24   908.60    18  15:37        0.24
  LL_10.16_CHANNEL2    JUNCTION     0.05     0.33   904.37    18  15:49        0.33
  LL_7.5_CHANNEL1      JUNCTION     0.01     0.36   902.18    18  10:02        0.36
  LL_8.1_DIVERSIONSTRUCTURE JUNCTION     0.50     4.49   922.87    10  12:42        4.29
  LL_OUTLET_DS         JUNCTION     0.68     0.85   892.43    10  13:25        0.85
  LOTUSLAKEOUTLET_FORCALIBRATION JUNCTION     0.89     1.04   896.04    10  13:08        1.04
  LOTUS_OUTLET_50FTDS  JUNCTION     0.38     0.48   890.32    10  13:32        0.48
  MARSH_OUT            JUNCTION     0.18     1.25   899.25    18  14:40        1.25
  MH1_7.3_LL           JUNCTION     0.02     0.83   943.93    18  09:30        0.82
  MH2_7.3_LL           JUNCTION     0.01     0.65   936.35    18  09:31        0.64
  MH3_7.3_LL           JUNCTION     0.02     0.76   930.66    18  09:31        0.75
  MH4_7.3_LL           JUNCTION     0.02     0.82   922.72    18  09:31        0.81
  POND3.1_OUTFALL      JUNCTION     0.04     0.08   911.84    18  13:02        0.08
  PURG13A              JUNCTION     0.75     1.66   867.13    18  13:02        1.65
  PURG13B              JUNCTION     0.99     1.95   866.94    18  16:33        1.95
  PURG13C              JUNCTION     1.35     2.35   866.91    18  16:51        2.35
  PURG14A              JUNCTION     1.67     2.69   866.90    18  17:00        2.69
  PURG14B              JUNCTION     1.57     2.59   866.90    18  17:00        2.59
  PURG14_C             JUNCTION     1.46     2.47   866.89    18  17:01        2.47
  PURGATORY_1          JUNCTION     3.24     3.38   895.98    10  13:25        3.38
  PURGATORY_10         JUNCTION     1.97     2.56   875.81    18  09:58        2.56
  PURGATORY_10_A       JUNCTION     1.96     2.56   874.61    18  10:11        2.55
  PURGATORY_10_B       JUNCTION     1.96     2.52   873.67    18  10:21        2.50
  PURGATORY_11         JUNCTION     1.96     2.59   873.09    18  10:29        2.59
  PURGATORY_11_A       JUNCTION     1.96     2.51   872.11    18  10:46        2.51
  PURGATORY_11_B       JUNCTION     1.98     2.92   871.54    18  11:14        2.92
  PURGATORY_12         JUNCTION     2.42     3.75   871.49    18  11:15        3.75
  PURGATORY_12_A       JUNCTION     2.53     3.79   870.89    18  13:15        3.79
  PURGATORY_12_B       JUNCTION     2.89     3.99   870.48    18  14:11        3.99
  PURGATORY_13         JUNCTION     3.30     4.42   870.34    18  14:13        4.42
  PURGATORY_14         JUNCTION     1.78     2.80   866.90    18  17:00        2.80
  PURGATORY_2          JUNCTION     1.15     1.34   891.34    10  13:24        1.34
  PURGATORY_3          JUNCTION     1.70     1.99   888.80    10  16:20        1.99
  PURGATORY_4          JUNCTION     1.12     1.22   888.31    10  16:17        1.22
  PURGATORY_5          JUNCTION     0.84     1.97   886.12    18  09:41        1.95
  PURGATORY_6          JUNCTION     1.25     2.11   885.60    18  09:43        2.10
  PURGATORY_7          JUNCTION     0.60     1.52   881.67    18  10:15        1.52
  PURGATORY_8          JUNCTION     0.96     1.31   880.43    18  10:47        1.31
  PURGATORY_9          JUNCTION     0.02     1.13   885.03    18  09:31        1.12
  PURGATORY_US_OUTLET  JUNCTION     1.85     1.98   895.98    10  13:25        1.98
  PURGOUTLET_CHANNEL   JUNCTION     1.41     1.55   895.99    10  13:24        1.55
  PURG_CHANNEL1        JUNCTION     0.41     0.66   888.85    10  16:11        0.66
  PURG_CHANNEL2        JUNCTION     0.34     0.55   882.21    18  10:00        0.55
  PURG_DS_DUCK         JUNCTION     0.22     0.43   883.92    18  09:51        0.43
  PURG_DS_TARTAN       JUNCTION     0.35     0.45   887.54    10  16:30        0.45
  PURG_TARTAN_50FTUS   JUNCTION     1.54     1.83   888.80    10  16:20        1.83
  PURG_US_DELL         JUNCTION     1.66     1.87   882.19    18  13:31        1.86
  PURG_US_DUCK         JUNCTION     0.71     1.66   886.13    18  09:42        1.65
  US_KERBER_CULVERT    JUNCTION     0.08     1.56   939.43    18  13:17        1.04
  US_TOWNLINE          JUNCTION     1.35     2.36   866.88    18  17:01        2.36
  US_TOWNLINEROAD      JUNCTION     1.12     2.08   866.60    18  17:02        2.07
  GW_OUTLET            OUTFALL      0.00     0.00     0.00     0  00:00        0.00
  PURG_OUTLET          OUTFALL      0.38     0.78   864.66    18  17:04        0.78
  LL-P1.1              STORAGE      4.29     4.77   996.77    18  10:15        4.77
  LL-P1.2              STORAGE      2.00     2.05   914.05    18  10:02        2.05
  LL-P1.5              STORAGE      0.27     1.30   898.30    18  09:30        1.30
  LL-P10.1             STORAGE      0.42     0.63   996.63    21  15:00        0.63
  LL-P10.11            STORAGE      2.72     4.07   952.07    18  13:29        4.07
  LL-P10.13            STORAGE      0.55     0.68   924.68    18  09:36        0.66
  LL-P10.15            STORAGE      0.47     0.96   949.96    18  10:22        0.96
  LL-P10.16            STORAGE      0.55     0.62   924.62    18  09:48        0.62
  LL-P10.16_OUTLET     STORAGE      2.72     4.30   920.36    18  14:31        4.29
  LL-P10.2             STORAGE      0.72     1.10   989.10    18  09:39        1.09
  LL-P10.4             STORAGE      3.69     4.27   974.27    18  14:15        4.27
  LL-P10.6             STORAGE      0.78     1.04   996.04    18  13:40        1.04
  LL-P10.7             STORAGE      0.06     0.33   992.33    18  13:14        0.33
  LL-P3.1              STORAGE      0.86     1.18   913.18    10  09:09        1.18
  LL-P4.2              STORAGE      4.60     5.15   902.15    18  10:04        5.15
  LL-P4.3              STORAGE      6.04     6.55   901.55    18  13:44        6.55
  LL-P4.4              STORAGE      0.52     0.63   900.63    18  14:28        0.63
  LL-P5.1A             STORAGE      0.52     0.79   918.29    18  13:19        0.79
  LL-P6.2              STORAGE      3.47     3.79   910.29    18  09:44        3.79
  LL-P6.3              STORAGE      4.07     5.01   899.01    18  13:27        5.01
  LL-P9.1              STORAGE      0.11     0.30   946.18    10  09:04        0.30
  LL_8.1A              STORAGE      3.57     6.87   919.17    18  09:38        6.76
  LL_8.1B              STORAGE      9.41     9.96   915.96    18  09:45        9.96
  LOTUS_LAKE           STORAGE     29.89    30.04   896.04    10  13:08       30.04
  
  
  *******************
  Node Inflow Summary
  *******************
  
  -------------------------------------------------------------------------------------------------
                                  Maximum  Maximum                  Lateral       Total        Flow
                                  Lateral    Total  Time of Max      Inflow      Inflow     Balance
                                   Inflow   Inflow   Occurrence      Volume      Volume       Error
  Node                 Type           CFS      CFS  days hr:min    10^6 gal    10^6 gal     Percent
  -------------------------------------------------------------------------------------------------
  10.16_CHANNEL1       JUNCTION      0.00    36.50    18  13:20           0        8.05       0.048
  10.16_OUTLET_CHANNEL JUNCTION      0.00     9.18    18  14:31           0        11.1       0.120
  2533                 JUNCTION      0.00     1.59    18  13:14           0         1.4       0.000
  2534                 JUNCTION      1.10     2.08    18  13:02       0.156        1.55      -0.000
  2537                 JUNCTION      0.00     2.08    18  13:03           0        1.55       0.000
  2541                 JUNCTION      0.00     2.08    18  13:04           0        1.55       0.000
  2542                 JUNCTION      0.00     2.08    18  13:04           0        1.55       0.000
  2558                 JUNCTION      5.64     5.64    18  09:30       0.785       0.785      -0.010
  2560                 JUNCTION      0.00     5.59    18  09:30           0       0.785      -0.007
  2561                 JUNCTION      0.00     5.63    18  09:30           0       0.786       0.027
  2582                 JUNCTION      0.00     1.40    18  13:20           0       0.752       0.001
  2583                 JUNCTION      0.00     1.40    18  13:20           0       0.752      -0.001
  2585                 JUNCTION      0.00     1.40    18  13:21           0       0.752      -0.001
  2586                 JUNCTION      0.00     1.40    18  13:22           0       0.752       0.001
  3008                 JUNCTION      0.00    24.86    18  09:32           0        4.95      -0.038
  3009                 JUNCTION      0.00    24.85    18  09:32           0        4.96      -0.066
  3011                 JUNCTION      0.00     1.12    18  14:16           0        2.08      -0.728
  3012                 JUNCTION      0.00     1.12    18  14:16           0        2.09       0.023
  3069                 JUNCTION      5.32    16.62    18  13:24       0.746         9.2      -0.004
  3085                 JUNCTION      3.14     3.14    18  09:30       0.441       0.441      -0.005
  3168                 JUNCTION      0.00     5.54    18  09:32           0       0.786       0.027
  3170                 JUNCTION      0.00     5.54    18  09:31           0       0.785      -0.009
  3171                 JUNCTION      0.00     5.54    18  09:31           0       0.785       0.000
  3173                 JUNCTION      0.00     5.55    18  09:31           0       0.786       0.006
  3174                 JUNCTION      0.00     5.55    18  09:31           0       0.785      -0.001
  3177                 JUNCTION      0.00     5.58    18  09:30           0       0.785      -0.018
  3181                 JUNCTION      6.32     6.32    18  09:30       0.885       0.885      -0.003
  3182                 JUNCTION      0.00     6.29    18  09:30           0       0.885      -0.017
  3183                 JUNCTION      4.62    16.16    18  09:30       0.648        2.32      -0.008
  3193                 JUNCTION      0.00    14.40    18  09:38           0        2.22       0.113
  3531                 JUNCTION      0.00     0.86    18  09:31           0       0.123      -0.001
  3532                 JUNCTION      0.00     0.86    18  09:30           0       0.123      -0.003
  3533                 JUNCTION      0.00     0.87    18  09:30           0       0.123      -0.060
  3534                 JUNCTION      0.00     0.87    18  09:30           0       0.123       0.100
  3535                 JUNCTION      0.87     0.87    18  09:30       0.123       0.123       0.064
  3536                 JUNCTION      0.00     0.86    18  09:31           0       0.123      -0.025
  3537                 JUNCTION      1.98     2.82    18  09:30        0.28       0.404       0.015
  4.3_OUTFALL          JUNCTION      0.00     1.39    18  13:39           0       0.992       0.160
  4.4MARSH_OUT1        JUNCTION      0.00     1.39    18  15:11           0        1.84       0.000
  5107                 JUNCTION      0.75     0.75    18  09:30       0.106       0.106       0.434
  5109                 JUNCTION      0.00     0.76    18  09:29           0       0.122      -0.328
  5114                 JUNCTION      0.00     2.34    18  10:59           0       0.823       0.396
  5115                 JUNCTION      0.00     2.22    18  10:04           0       0.725       0.047
  5130                 JUNCTION      0.00     4.58    18  09:32           0        1.25       0.030
  5131                 JUNCTION      0.00     4.58    18  09:33           0        1.25      -0.016
  5132                 JUNCTION      0.00     4.58    18  09:32           0        1.25      -0.003
  5133                 JUNCTION      0.00     4.58    18  09:32           0        1.25       0.005
  5134                 JUNCTION      0.00     4.58    18  09:32           0        1.25      -0.005
  5137                 JUNCTION      3.26     4.65    18  09:30       0.462        1.25       0.015
  5139                 JUNCTION      0.00     2.27    18  10:13           0       0.791       0.042
  5140                 JUNCTION      0.00     2.27    18  10:13           0       0.791       0.009
  5144                 JUNCTION      0.00     0.71    18  10:03           0        0.23      -0.000
  5145                 JUNCTION      0.00     2.27    18  10:12           0       0.794       0.000
  5146                 JUNCTION      0.00     1.57    18  10:16           0       0.564      -0.004
  5147                 JUNCTION      0.00     1.57    18  10:16           0       0.564       0.001
  5149                 JUNCTION      0.00     1.57    18  10:16           0       0.564      -0.001
  5150                 JUNCTION      0.00     1.57    18  10:15           0       0.565       0.004
  5151                 JUNCTION      0.00     1.57    18  10:15           0       0.564      -0.002
  5152                 JUNCTION      0.00     0.71    18  10:02           0        0.23      -0.000
  5153                 JUNCTION      0.00     2.27    18  10:12           0       0.794       0.321
  5157                 JUNCTION      2.53     2.53    18  09:30       0.356       0.356       0.013
  5158                 JUNCTION      0.00     2.52    18  09:30           0       0.356       0.039
  5177                 JUNCTION      0.00     0.99    18  10:25           0       0.407       0.000
  5184                 JUNCTION      0.00     0.99    18  10:24           0       0.407       0.002
  5185                 JUNCTION      0.00     0.99    18  10:24           0       0.407      -0.000
  5186                 JUNCTION      0.00     0.99    18  10:24           0       0.407       0.000
  5187                 JUNCTION      0.00     0.99    18  10:23           0       0.407       0.000
  5188                 JUNCTION      0.00     0.99    18  10:23           0       0.407      -0.005
  5189                 JUNCTION      0.00     0.99    18  10:23           0       0.407       0.009
  5190                 JUNCTION      0.00     0.99    18  10:22           0       0.407      -0.002
  5261                 JUNCTION      0.00     0.68    18  13:40           0       0.974       0.003
  5262                 JUNCTION      0.00     0.68    18  13:40           0       0.973       0.000
  5272                 JUNCTION      0.00    17.02    18  09:30           0        3.74       0.009
  5276                 JUNCTION      0.00    17.03    18  09:30           0        3.74      -0.008
  5279                 JUNCTION      0.00    16.95    18  09:31           0        3.74       0.008
  5281                 JUNCTION      0.00    16.99    18  09:30           0        3.74      -0.000
  5287                 JUNCTION      0.00    16.96    18  09:31           0        3.74      -0.005
  5289                 JUNCTION      0.00    24.93    18  09:31           0        4.96       0.015
  5290                 JUNCTION      8.74    24.93    18  09:31        1.21        4.96      -0.000
  5291                 JUNCTION      0.00    16.75    18  09:31           0        3.74      -0.004
  5306                 JUNCTION     15.79    17.12    18  09:30        2.19        3.74      -0.005
  5308                 JUNCTION      0.00     2.08    18  13:06           0        1.55       0.010
  5311                 JUNCTION      0.00     2.08    18  13:05           0        1.55      -0.001
  5312                 JUNCTION      0.00     2.08    18  13:05           0        1.55       0.000
  5314                 JUNCTION      0.00     2.08    18  13:05           0        1.55       0.001
  5315                 JUNCTION      0.00     2.08    18  13:04           0        1.55      -0.001
  5385                 JUNCTION      1.38     1.38    18  09:30       0.195       0.195      -0.058
  5388                 JUNCTION      0.00     5.29    18  13:25           0       0.773       0.987
  5391                 JUNCTION      0.00     0.83    18  09:45           0       0.232       0.000
  5400                 JUNCTION      0.92     0.92    18  09:30        0.13        0.13      -0.018
  5401                 JUNCTION      0.00     0.92    18  09:30           0        0.13       0.189
  6433                 JUNCTION      0.00     3.68    18  09:39           0       0.749       0.026
  6434                 JUNCTION      0.00     3.68    18  09:39           0       0.749      -0.001
  7553                 JUNCTION      0.00     0.68    18  13:39           0        0.97      -0.593
  8146                 JUNCTION      0.00    16.63    18  13:24           0         9.2      -0.049
  8191                 JUNCTION      0.00     8.94    18  09:34           0        1.84       0.247
  9_1_B                JUNCTION      4.27    49.06     0  00:01       0.601        2.97      -0.003
  9_1_CHANNEL1         JUNCTION      0.00   205.42     0  00:00           0        2.38       0.011
  9_1_OUT              JUNCTION      0.00     0.59    10  09:04           0        2.31      -3.670
  9_2_CHANNEL1         JUNCTION      0.00    14.09     0  00:05           0        2.82      -0.004
  DS_DELLROAD          JUNCTION      0.00    22.61    18  10:22           0         144       0.181
  DS_KERBERCULVERT     JUNCTION      0.00    46.07    18  13:18           0        8.08      -0.004
  DS_TOWNLINEROAD      JUNCTION      0.00    31.19    18  17:02           0         162       0.027
  JCT-72               JUNCTION      0.00    30.20     0  00:00           0        2.26      -0.104
  JCT-90               JUNCTION      0.00    64.46    18  09:32           0         152       0.051
  KERBER_CULVERT_1     JUNCTION      0.00    51.21    18  13:17           0        8.09       0.015
  LL-10.16_MH2         JUNCTION      0.00     9.10    18  15:28           0        11.1      -0.000
  LL-10.16_MH3         JUNCTION      0.00     9.10    18  15:28           0        11.1       0.004
  LL-10.16_OUTLETPIPE  JUNCTION      0.00    41.32     0  00:00           0        11.1       0.002
  LL-10.17_INFLOW      JUNCTION      5.01     9.26    18  16:00       0.705        11.6       0.000
  LL-10.9_CHANNEL      JUNCTION      5.07   139.08    18  13:15       0.713        8.24      -0.514
  LL-3.2CHANNEL3       JUNCTION      0.00     0.25    10  03:53           0        1.59       0.011
  LL-3.2_CHANNEL       JUNCTION      0.00     0.26    18  13:21           0         1.6       0.012
  LL-3.2_CHANNEL1      JUNCTION      0.00     0.26    18  13:10           0         1.6       0.009
  LL-6.6_1             JUNCTION      0.00    18.66     0  00:01           0       0.433      -5.691
  LL-6.6_2             JUNCTION      0.00     2.81    18  09:30           0       0.404      -8.753
  LL-6.6_3             JUNCTION      0.00   107.61     0  00:00           0       0.441       1.892
  LL-7.5_CHANNEL       JUNCTION     10.79    17.55    18  09:48        1.51        4.07      -0.026
  LL-8.1B_CHANNEL      JUNCTION      0.00    12.71    18  09:45           0        2.22      -0.001
  LL-8.1B_OUTLET       JUNCTION      0.00    12.70    18  09:45           0        2.22       0.030
  LL-8.1DIVERSIONCHANNEL JUNCTION      0.00     9.89     9  13:55           0       0.346      -0.585
  LL-8.1_DIVERSION     JUNCTION      0.00    31.67    10  12:42           0       0.375      -0.267
  LL-8.1_MH1           JUNCTION      0.00    20.42     9  13:54           0       0.376       8.755
  LL-A10.16_OUTLET     JUNCTION      0.00    18.76    18  13:05           0          11       2.496
  LL-P5.1A_OUT         JUNCTION      0.00     1.40    18  13:19           0       0.752       0.000
  LL-P6.1_CHANNEL      JUNCTION      0.00     1.19    18  13:28           0       0.645      -0.000
  LL-P6.3_OUT_DS       JUNCTION      0.96     1.57    18  09:33       0.135       0.676      -0.031
  LL_10.16-CHANNEL1    JUNCTION      0.00     9.10    18  15:32           0          11       0.003
  LL_10.16_CHANNEL2    JUNCTION      0.00     9.09    18  15:37           0        10.9       0.002
  LL_7.5_CHANNEL1      JUNCTION      0.00    15.73    18  09:58           0        4.06      -0.006
  LL_8.1_DIVERSIONSTRUCTURE JUNCTION      0.00    84.36    11  10:12           0        3.54      -2.187
  LL_OUTLET_DS         JUNCTION      0.00    10.62    10  13:25           0         142       0.000
  LOTUSLAKEOUTLET_FORCALIBRATION JUNCTION      0.00   356.11     0  00:01           0         143       0.103
  LOTUS_OUTLET_50FTDS  JUNCTION      0.00    10.62    10  13:26           0         142       0.020
  MARSH_OUT            JUNCTION      0.00     1.39    18  14:28           0        1.84       0.002
  MH1_7.3_LL           JUNCTION      0.00    16.13    18  09:30           0        2.32       0.004
  MH2_7.3_LL           JUNCTION      0.00    16.12    18  09:30           0        2.32       0.002
  MH3_7.3_LL           JUNCTION      0.00    16.12    18  09:31           0        2.32      -0.005
  MH4_7.3_LL           JUNCTION      0.00    16.12    18  09:31           0        2.37       0.282
  POND3.1_OUTFALL      JUNCTION      0.00     0.26    10  03:11           0        1.61       0.005
  PURG13A              JUNCTION     14.32    49.39    18  13:00           2         162       0.037
  PURG13B              JUNCTION      7.04    53.34    18  13:00       0.992         163       0.090
  PURG13C              JUNCTION      0.00    52.12    18  13:01           0         163       0.169
  PURG14A              JUNCTION     13.84    42.52    18  13:00        1.94         164       0.281
  PURG14B              JUNCTION      0.00    32.26    18  16:02           0         164       0.320
  PURG14_C             JUNCTION      0.00    31.49    18  16:31           0         163       0.240
  PURGATORY_1          JUNCTION      0.00    10.62    10  13:23           0         142       0.039
  PURGATORY_10         JUNCTION      0.00    49.84    18  09:42           0         151       0.300
  PURGATORY_10_A       JUNCTION      0.00    46.77    18  10:06           0         151       0.107
  PURGATORY_10_B       JUNCTION      0.00    46.73    18  10:16           0         150       0.086
  PURGATORY_11         JUNCTION      5.27    47.14    18  10:21       0.745         151       0.049
  PURGATORY_11_A       JUNCTION      0.00    47.25    18  10:34           0         151       0.108
  PURGATORY_11_B       JUNCTION     24.42    49.54    18  10:45        3.39         154       0.062
  PURGATORY_12         JUNCTION     14.90    46.21    18  10:54        2.09         156       0.095
  PURGATORY_12_A       JUNCTION     19.12    51.86    18  13:00        2.66         158       0.008
  PURGATORY_12_B       JUNCTION      6.05    48.47    18  13:07       0.854         159       0.065
  PURGATORY_13         JUNCTION     14.42    48.32    18  13:00        2.02         161       0.078
  PURGATORY_14         JUNCTION      3.98    49.00    18  13:03       0.559         163       0.271
  PURGATORY_2          JUNCTION      0.00    10.62    10  13:25           0         142       0.005
  PURGATORY_3          JUNCTION      0.00    10.59    10  15:46           0         142       0.153
  PURGATORY_4          JUNCTION      0.00    10.59    10  16:20           0         141       0.031
  PURGATORY_5          JUNCTION     28.37    28.37    18  09:30        3.95         145       0.005
  PURGATORY_6          JUNCTION      0.00    22.90    18  09:40           0         145       0.005
  PURGATORY_7          JUNCTION      0.00    25.66    18  10:07           0         144      -0.025
  PURGATORY_8          JUNCTION      0.00    24.85    18  10:17           0         144       0.072
  PURGATORY_9          JUNCTION     57.77    57.77    18  09:30        8.02        8.02       0.004
  PURGATORY_US_OUTLET  JUNCTION      0.00    15.28     0  01:31           0         142       0.212
  PURGOUTLET_CHANNEL   JUNCTION      0.00    13.90     0  01:16           0         143       0.271
  PURG_CHANNEL1        JUNCTION      0.00    10.61    10  13:32           0         142       0.032
  PURG_CHANNEL2        JUNCTION      0.00    22.08    18  09:51           0         145       0.089
  PURG_DS_DUCK         JUNCTION      0.00    22.80    18  09:39           0         145       0.030
  PURG_DS_TARTAN       JUNCTION      0.00    10.59    10  16:22           0         141       0.030
  PURG_TARTAN_50FTUS   JUNCTION      0.00    10.60    10  14:41           0         142       0.199
  PURG_US_DELL         JUNCTION      0.00    23.66    18  10:08           0         145       0.275
  PURG_US_DUCK         JUNCTION      0.00    13.04    18  09:30           0         141       0.045
  US_KERBER_CULVERT    JUNCTION      0.00   161.35    18  13:16           0        8.27       0.473
  US_TOWNLINE          JUNCTION      0.00    31.21    18  16:42           0         162       0.091
  US_TOWNLINEROAD      JUNCTION      0.00    31.19    18  17:00           0         162       0.017
  GW_OUTLET            OUTFALL       0.00     1.00     0  00:00           0        20.7       0.000
  PURG_OUTLET          OUTFALL       0.00    31.18    18  17:04           0         162       0.000
  LL-P1.1              STORAGE       1.47     3.99    18  09:30       0.207       0.737      -0.088
  LL-P1.2              STORAGE       1.62     1.62    18  09:30        0.23       0.523      -0.000
  LL-P1.5              STORAGE       4.21     8.51    18  09:30       0.592        1.84      -0.035
  LL-P10.1             STORAGE       0.96     0.96    18  09:30       0.136       0.136       0.000
  LL-P10.11            STORAGE       2.32    27.07    18  09:33       0.328        7.88      -0.019
  LL-P10.13            STORAGE      12.93    12.93    18  09:30         1.8        1.93      -0.026
  LL-P10.15            STORAGE       2.90     2.90    18  09:30       0.407       0.417       0.001
  LL-P10.16            STORAGE       1.10    11.42    18  09:33       0.157        2.56      -0.025
  LL-P10.16_OUTLET     STORAGE       0.00    11.17    18  13:33           0        11.1       0.015
  LL-P10.2             STORAGE       5.32     5.32    18  09:30       0.749       0.773       0.000
  LL-P10.4             STORAGE       9.61    12.46    18  09:30        1.34        3.39       0.422
  LL-P10.6             STORAGE       6.90     6.90    18  09:30       0.965        1.48       0.391
  LL-P10.7             STORAGE       3.00     3.06    18  09:30       0.421         1.4      -0.000
  LL-P3.1              STORAGE      11.14    11.14    18  09:30        1.55        1.92      -0.001
  LL-P4.2              STORAGE       4.39     5.15    18  09:30       0.618       0.937       0.000
  LL-P4.3              STORAGE       1.91     4.15    18  10:52       0.268        1.68      -0.162
  LL-P4.4              STORAGE       6.08     6.14    18  09:30       0.855        3.01       0.000
  LL-P5.1A             STORAGE       5.35     5.35    18  09:30       0.752       0.841       0.000
  LL-P6.2              STORAGE       0.72     1.63    18  09:30       0.102        0.31      -0.078
  LL-P6.3              STORAGE       0.61     7.80    18  13:05      0.0865        1.05      -0.528
  LL-P9.1              STORAGE      16.57    16.57    18  09:30        2.31        2.32       0.002
  LL_8.1A              STORAGE       1.24    32.55    23  19:49       0.177        3.47       0.998
  LL_8.1B              STORAGE       0.00    14.48    18  09:38           0        2.58      -0.054
  LOTUS_LAKE           STORAGE     228.20   239.64    18  09:30         127    1.26e+03      -0.030
  
  
  **********************
  Node Surcharge Summary
  **********************
  
  No nodes were surcharged.
  
  
  *********************
  Node Flooding Summary
  *********************
  
  No nodes were flooded.
  
  
  **********************
  Storage Volume Summary
  **********************
  
  --------------------------------------------------------------------------------------------------
                         Average     Avg  Evap Exfil       Maximum     Max    Time of Max    Maximum
                          Volume    Pcnt  Pcnt  Pcnt        Volume    Pcnt     Occurrence    Outflow
  Storage Unit          1000 ft3    Full  Loss  Loss      1000 ft3    Full    days hr:min        CFS
  --------------------------------------------------------------------------------------------------
  LL-P1.1                 23.185      29     0     0        28.583      36      18  10:15       1.57
  LL-P1.2                 39.225      19     0     0        41.324      21      18  10:02       0.71
  LL-P1.5                  0.075       0     0     0         1.571       2      18  09:30       8.94
  LL-P10.1                11.486      11     0     0        18.238      17      21  15:00       0.00
  LL-P10.11               74.670      16     0     0       145.395      31      18  13:29       8.94
  LL-P10.13                6.192       0     0     0         9.354       0      18  09:36      10.45
  LL-P10.15                1.528       1     0     0         6.201       4      18  10:22       0.99
  LL-P10.16               71.885       0     0     0        81.619       0      18  09:48       7.62
  LL-P10.16_OUTLET         4.580       1     0     0        21.071       3      18  14:31      41.35
  LL-P10.2                 3.353       1     0     0         7.972       2      18  09:39       3.68
  LL-P10.4               181.339      31     0     0       241.984      42      18  14:15       1.12
  LL-P10.6                73.443      11     0     0       100.777      16      18  13:40       0.68
  LL-P10.7                 0.980       0     0     0         6.054       1      18  13:14       1.59
  LL-P3.1                 62.073       4     0     0       114.351       8      10  09:09       0.26
  LL-P4.2                 26.684      14     0     0        33.472      17      18  10:04       2.22
  LL-P4.3                 79.965      26     0     0        95.101      31      18  13:44       2.06
  LL-P4.4                160.920      23     0     0       196.529      28      18  14:28       1.39
  LL-P5.1A                12.613       6     0     0        25.483      11      18  13:19       1.40
  LL-P6.2                 10.470      44     0     0        12.436      52      18  09:44       0.83
  LL-P6.3                 22.846      33     0     0        32.319      47      18  13:27       5.67
  LL-P9.1                 27.516       1     0     0       105.066       3      10  09:04       0.59
  LL_8.1A                  4.156       9     0     0        13.818      30      18  09:38      84.36
  LL_8.1B                 48.987      43     0     0        54.758      48      18  09:45      12.70
  LOTUS_LAKE          148617.482      19     0     0    150231.869      19      10  13:08     357.11
  
  
  ***********************
  Outfall Loading Summary
  ***********************
  
  -----------------------------------------------------------
                         Flow       Avg       Max       Total
                         Freq      Flow      Flow      Volume
  Outfall Node           Pcnt       CFS       CFS    10^6 gal
  -----------------------------------------------------------
  GW_OUTLET            100.00      1.00      1.00      20.654
  PURG_OUTLET           96.00      8.66     31.18     162.124
  -----------------------------------------------------------
  System                98.00      9.66     32.18     182.778
  
  
  ********************
  Link Flow Summary
  ********************
  
  -----------------------------------------------------------------------------
                                 Maximum  Time of Max   Maximum    Max/    Max/
                                  |Flow|   Occurrence   |Veloc|    Full    Full
  Link                 Type          CFS  days hr:min    ft/sec    Flow   Depth
  -----------------------------------------------------------------------------
  10.16_CHANNEL_1      CHANNEL     36.50    18  13:20      0.74    0.02    0.05
  10.16_CHANNEL_2      CHANNEL      0.00     0  00:00      0.00    0.00    0.00
  10.16_OPENCHANNEL    CHANNEL      9.10    18  15:28      2.27    0.09    0.15
  10.16_OVERFLOW_STRUCTURE CHANNEL      0.00     0  00:00      0.00    0.00    0.01
  192ND_STREET         CHANNEL      0.00     0  00:00      0.00    0.00    0.00
  2533L1               CONDUIT      1.59    18  13:14      4.15    0.16    0.27
  2534L1               CONDUIT      2.08    18  13:03      3.41    0.20    0.30
  2537L1               CONDUIT      2.08    18  13:04      4.36    0.10    0.21
  2541L1               CONDUIT      2.08    18  13:04      4.57    0.09    0.20
  2542L1               CONDUIT      2.08    18  13:04      7.13    0.05    0.15
  2558L1               CONDUIT      5.63    18  09:30      4.95    0.12    0.39
  2560L1               CONDUIT      5.58    18  09:30      6.89    0.14    0.26
  2561L1               CONDUIT      5.59    18  09:30      3.72    0.29    0.48
  2582L1               CONDUIT      1.40    18  13:21      3.82    0.25    0.34
  2583L1               CONDUIT      1.40    18  13:20      5.44    0.27    0.36
  2585L1               CONDUIT      1.40    18  13:22      4.82    0.25    0.29
  2586L1               CONDUIT      1.40    18  13:23      0.78    0.02    0.55
  3008L1               CONDUIT     24.85    18  09:32      6.96    0.17    0.33
  3009L1               CONDUIT     24.79    18  09:33      5.44    2.40    0.49
  3011L1               CONDUIT      1.12    18  14:16      6.13    0.24    0.28
  3012L1               CONDUIT      1.12    18  14:16      2.32    0.07    0.59
  3085L1               CONDUIT      3.13    18  09:30     10.70    0.18    0.29
  3168L1               CONDUIT      5.54    18  09:32      7.83    0.07    0.28
  3168L2               CHANNEL      0.00     0  00:00      0.00    0.00    0.00
  3170L1               CONDUIT      5.54    18  09:32      9.09    0.17    0.25
  3170L2               CHANNEL      0.00     0  00:00      0.00    0.00    0.00
  3171L1               CONDUIT      5.54    18  09:31      7.65    0.17    0.28
  3173L1               CONDUIT      5.55    18  09:31      9.58    0.13    0.24
  3174L1               CONDUIT      5.54    18  09:31      8.40    0.15    0.26
  3177L1               CONDUIT      5.55    18  09:31      6.98    0.21    0.30
  3181L1               CONDUIT      6.29    18  09:30      9.88    0.13    0.26
  3182L1               CONDUIT      6.29    18  09:30      7.41    0.14    0.32
  3183L1               CONDUIT     16.13    18  09:30     12.03    0.20    0.32
  3183L2               CHANNEL      0.00     0  00:00      0.00    0.00    0.00
  3531L1               CONDUIT      0.86    18  09:31      6.40    0.06    0.17
  3532L1               CONDUIT      0.86    18  09:31      4.91    0.09    0.20
  3533L1               CONDUIT      0.86    18  09:30      2.64    0.23    0.31
  3534L1               CONDUIT      0.87    18  09:30      3.51    0.11    0.26
  3535L1               CONDUIT      0.87    18  09:30      3.71    0.13    0.25
  3536L1               CONDUIT      0.86    18  09:31      2.84    0.04    0.27
  4.4MARSH_OUTL1       CHANNEL      1.39    18  15:11      0.58    0.09    0.40
  4.4_CHANNEL          CHANNEL      1.38    18  13:49      0.44    3.01    0.52
  5107L1               CONDUIT      0.76    18  09:29      2.50    0.12    0.26
  5109L1               CONDUIT      0.77    18  09:30      0.69    0.07    0.69
  5114L1               CONDUIT      3.73    18  10:52      2.17    0.14    0.53
  5115L1               CONDUIT      2.22    18  10:04      4.12    0.08    0.28
  5130L1               CONDUIT      4.58    18  09:33      2.80    0.05    0.19
  5131L1               CONDUIT      4.57    18  09:33      4.74    0.04    0.13
  5132L1               CONDUIT      4.58    18  09:32      3.27    0.05    0.20
  5133L1               CONDUIT      4.58    18  09:32      3.76    0.08    0.18
  5134L1               CONDUIT      4.58    18  09:32      5.52    0.02    0.14
  5137L1               CONDUIT      4.58    18  09:32      2.13    0.08    0.28
  5139L1               CONDUIT      2.27    18  10:14      1.73    0.05    0.25
  5140L1               CONDUIT      2.27    18  10:13      5.53    0.03    0.14
  5144L1               CONDUIT      0.71    18  10:03      2.95    0.08    0.19
  5145L1               CONDUIT      2.27    18  10:12      1.42    0.03    0.51
  5146L1               CONDUIT      1.57    18  10:16      9.78    0.05    0.15
  5147L1               CONDUIT      1.57    18  10:16      9.63    0.05    0.15
  5149L1               CONDUIT      1.57    18  10:16      9.96    0.05    0.14
  5151L1               CONDUIT      1.57    18  10:16      9.98    0.08    0.19
  5152L1               CONDUIT      0.71    18  10:03      4.01    0.05    0.16
  5153L1               CONDUIT      2.27    18  10:13      1.08    0.06    0.45
  5157L1               CONDUIT      2.52    18  09:30      5.67    0.13    0.24
  5158L1               CONDUIT      2.52    18  09:30      8.05    0.03    0.15
  5177L1               CONDUIT      0.99    18  10:25      0.97    0.03    0.56
  5184L1               CONDUIT      0.99    18  10:24      3.63    0.10    0.21
  5185L1               CONDUIT      0.99    18  10:24      3.73    0.10    0.21
  5186L1               CONDUIT      0.99    18  10:25      4.56    0.09    0.18
  5187L1               CONDUIT      0.99    18  10:24      3.92    0.09    0.20
  5188L1               CONDUIT      0.99    18  10:23      3.94    0.09    0.20
  5189L1               CONDUIT      0.99    18  10:23      3.25    0.12    0.23
  5190L1               CONDUIT      0.99    18  10:23      4.42    0.10    0.24
  5261L1               CONDUIT      0.68    18  13:40      2.51    0.04    0.14
  5262L1               CONDUIT      0.68    18  13:41      3.05    0.03    0.12
  5272L1               CONDUIT     16.99    18  09:30      7.53    0.26    0.36
  5276L1               CONDUIT     17.02    18  09:30      7.91    0.25    0.34
  5279L1               CONDUIT     16.96    18  09:31      7.92    0.25    0.34
  5281L1               CONDUIT     16.95    18  09:31      7.07    0.26    0.37
  5287L1               CONDUIT     16.75    18  09:31      6.52    0.32    0.39
  5289L1               CONDUIT     24.86    18  09:32      4.88    0.62    0.43
  5290L1               CONDUIT     24.93    18  09:31      6.25    0.44    0.55
  5291L1               CONDUIT     16.73    18  09:32      7.63    0.21    0.35
  5306L1               CONDUIT     17.03    18  09:30      8.00    0.32    0.39
  5308L1               CONDUIT      2.08    18  13:06      3.61    0.07    0.31
  5311L1               CONDUIT      2.08    18  13:06      4.88    0.05    0.16
  5312L1               CONDUIT      2.08    18  13:05      4.47    0.09    0.21
  5314L1               CONDUIT      2.08    18  13:05      4.75    0.08    0.20
  5315L1               CONDUIT      2.08    18  13:05      4.61    0.09    0.20
  5385L1               CONDUIT      1.38    18  09:30      6.27    0.07    0.40
  5388_L1              CONDUIT      7.48    18  13:05      3.65    0.16    0.76
  5391L1               CONDUIT      0.83    18  09:45      4.72    0.04    0.41
  5400L1               CONDUIT      0.92    18  09:30      3.27    0.04    0.14
  5401L1               CONDUIT      0.92    18  09:30      3.09    0.05    0.15
  6433L1               CONDUIT      3.68    18  09:40     12.19    0.19    0.34
  6434L1               CONDUIT      3.68    18  09:39      7.74    0.26    0.31
  8146L1               CHANNEL     14.01    18  13:33      0.12    0.00    0.04
  9_1_OUTLET           CONDUIT      0.59    10  09:04      6.52    0.08    0.51
  9_2_CHANNEL          CHANNEL     14.09     0  00:05      2.90    0.00    0.00
  CDT-497              CONDUIT      9.18    18  14:31      4.55    0.30    0.43
  CDT-499              CHANNEL      0.25    10  03:53      0.72    0.00    0.01
  CDT-503              CHANNEL     47.25    18  10:34      3.46    0.00    0.05
  CDT-507              CONDUIT     12.71    18  09:45      7.00    0.18    0.24
  CDT-509              CHANNEL     10.62    10  13:23      0.66    0.00    0.08
  CDT-511              CHANNEL     10.61    10  13:32      0.45    0.00    0.01
  CDT-513              CHANNEL     10.59    10  15:46      0.28    0.00    0.03
  CDT-515              CHANNEL     10.58    10  16:30      0.28    0.00    0.02
  CDT-517              CHANNEL     11.82    18  13:45      0.70    0.00    0.03
  CDT-519              CHANNEL     22.08    18  09:51      0.45    0.00    0.01
  CDT-521              CHANNEL     25.66    18  10:07    >50.00    0.00    0.03
  CDT-523              CHANNEL     20.03    18  10:48      0.28    0.00    0.02
  CDT-527              CHANNEL     31.19    18  17:00      0.88    0.00    0.03
  CDT-531              CONDUIT      1.57    18  10:15     12.62    0.05    0.16
  CDT-533              CHANNEL     51.21    18  13:17      3.46    0.00    0.12
  CDT-537              CHANNEL      9.07    18  15:34      1.13    0.00    0.01
  CDT-539              CHANNEL     14.66    18  13:24      0.61    0.01    0.03
  CDT-541              CHANNEL      1.17    18  13:29      0.32    0.02    0.57
  CDT-543              CHANNEL     49.06     0  00:01      8.84    0.00    0.01
  CDT-545              CHANNEL      3.97     0  00:17      0.00    0.00    0.42
  CDT-547              CHANNEL     15.56    18  10:02      0.01    0.00    0.51
  CDT-549              CHANNEL      1.39    18  15:14      0.36    0.02    0.59
  CDT-551              CHANNEL      0.26    18  13:21      0.57    0.00    0.02
  CDT-553              CHANNEL      0.25    11  04:22      0.00    0.00    0.50
  CDT-555              CHANNEL     15.18     0  01:31      0.36    0.00    0.06
  CDT-557              CHANNEL     10.60    10  14:41      0.45    0.00    0.03
  CDT-559              CHANNEL     23.66    18  10:08      0.28    0.00    0.02
  CDT-561              CHANNEL     45.31    18  10:21      2.63    0.00    0.05
  CDT-563              CHANNEL     46.73    18  10:16      3.23    0.00    0.05
  CDT-565              CHANNEL     43.59    18  10:46     10.82    0.00    0.05
  CDT-567              CHANNEL     43.10    18  10:57      8.49    0.00    0.06
  CDT-569              CHANNEL     42.49    18  13:30      0.88    0.00    0.07
  CDT-571              CHANNEL     46.05    18  13:13      0.88    0.00    0.07
  CDT-579              CHANNEL     48.89    18  13:01      0.62    0.00    0.03
  CDT-581              CHANNEL     52.12    18  13:01     31.08    0.00    0.04
  CDT-583              CHANNEL     46.84    18  13:05    >50.00    0.00    0.04
  CDT-585              CHANNEL     32.26    18  16:02    >50.00    0.00    0.04
  CDT-587              CHANNEL     31.49    18  16:31      0.13    0.00    0.04
  CDT-589              CHANNEL     31.21    18  16:42      0.12    0.00    0.03
  DUCK_LAKE_TRAIL      CHANNEL      0.00     0  00:00      0.00    0.00    0.00
  KERBER_BLVD          CHANNEL      0.00     0  00:00      0.00    0.00    0.00
  LL-10.13_OUTLET      CHANNEL     10.45    18  09:34      0.31    0.00    0.01
  LL-10.16_CHANNEL     CONDUIT     46.07    18  13:18      8.27    1.01    0.46
  LL-10.16_CHANNEL2    CHANNEL      9.09    18  15:37      0.87    0.00    0.01
  LL-10.16_CHANNEL3    CHANNEL      9.23    18  16:01      0.05    0.00    0.51
  LL-10.16_OUT2CHANNEL CHANNEL      9.10    18  15:32      1.13    0.00    0.01
  LL-10.16_STORMSEWERCHANNEL CONDUIT     16.63    18  13:24     13.23    0.20    0.26
  LL-10.9_CHANNEL_1    CHANNEL    161.35    18  13:16    >50.00    0.00    0.04
  LL-6.6_1             CHANNEL    107.61     0  00:00     13.87    0.00    0.05
  LL-6.6_3L1           CONDUIT     18.66     0  00:01     13.62    0.22    0.28
  LL-6.6_L2            CHANNEL     44.27     0  00:00      0.23    0.00    0.54
  LL-7.5CHANNEL        CHANNEL     15.73    18  09:58      3.68    0.00    0.02
  LL-8.1A_ORIFICE      CONDUIT     30.20     0  00:00      6.46    8.50    1.00
  LL-8.1B_CHANNEL      CHANNEL     12.29    18  09:49      0.41    0.00    0.02
  LL-8.1_DIVERSIONCHANNEL CHANNEL      3.13    10  12:43      1.47    0.00    0.04
  LL-8.1_DIVERSIONL1   CONDUIT     20.42     9  13:54     10.10    0.47    0.35
  LL-8.1_DIVERSIONPIPE CONDUIT      9.89     9  13:55     18.84    0.05    0.15
  LL-8.1_DIVERSIONTOPOND CONDUIT     84.36    11  10:12     12.53    1.46    0.96
  LL-8.1_POND_CONNECTION CONDUIT     14.48    18  09:38      8.91    0.24    0.31
  LL-9.1_CHANNEL1      CHANNEL    205.42     0  00:00     12.60    0.00    0.02
  LL-A1.5_OUTLETCHANNEL CHANNEL      4.14    18  10:40      0.00    0.00    0.54
  LL-A6.3_MARSH        CHANNEL      1.19    18  13:28      0.62    0.07    0.32
  LL-A6.3_OUT          CONDUIT      1.80    18  09:31      2.23    0.14    0.90
  LL-P1.1_OUTL1        CONDUIT      1.57    18  10:15      2.16    0.08    0.57
  LL-P1.5_OUTL1        CONDUIT      8.94    18  09:34      6.49    0.18    0.44
  LL-P10.11_OUTLET     CONDUIT      8.94    18  13:29      4.07    0.95    0.66
  LL-P10.16_OUTLETL1   CHANNEL      7.62    18  09:48      0.25    0.00    0.02
  LL-P10.16_OVERFLOWCHANNEL CHANNEL     10.31    18  13:33      0.79    0.00    0.06
  LL-P10.2_OUTL1       CONDUIT      3.68    18  09:39      7.35    0.16    0.33
  LL-P10.7_OUTL1       CONDUIT      1.59    18  13:14      6.07    0.24    0.37
  LL-P3.1L1            CHANNEL      0.26    18  13:10      0.71    0.00    0.01
  LL-P3.1_OUTL1        CONDUIT      0.26    10  03:11      2.55    0.84    0.58
  LL-P4.2L1            CONDUIT      2.22    18  10:04      3.32    0.12    0.22
  LL-P4.3_OUTFALL      CONDUIT      1.39    18  13:39      2.12    0.27    0.78
  LL-P5.1A_OUTLET      CONDUIT      1.40    18  13:20      5.60    0.27    0.36
  LL-P6.2L1            CONDUIT      0.83    18  09:45      3.93    0.19    0.31
  LL10.4_OUTLET        CONDUIT      1.12    18  14:16      1.98    0.19    0.67
  LL_10.15_OUTLET      CONDUIT      0.99    18  10:22      3.41    0.43    0.40
  LL_10.16_OUTL1       CONDUIT      9.10    18  15:28      7.26    0.17    0.28
  LL_10.6_OUTLET       CONDUIT      0.68    18  13:40      2.33    0.05    0.15
  LL_6.6_PIPE_OUTLET   CONDUIT      2.81    18  09:30      5.11    0.03    0.16
  LL_OUTLET_STRUCT     CONDUIT     10.62    10  13:25      6.04    0.38    0.55
  LOTUSLAKE_OUTLET     CHANNEL     13.90     0  01:16      0.33    0.00    0.04
  MH1_7.3L1            CONDUIT     16.12    18  09:30     13.31    0.20    0.30
  MH1_7.3L2            CHANNEL      0.00     0  00:00      0.00    0.00    0.00
  MH2_7.3L1            CONDUIT     16.12    18  09:31     14.16    0.15    0.28
  MH2_7.3L2            CHANNEL      0.00     0  00:00      0.00    0.00    0.00
  MH3_7.3L2            CHANNEL      0.00     0  00:00      0.00    0.00    0.00
  MH3_7.3_L1           CONDUIT     16.12    18  09:31     12.07    0.20    0.32
  MH4_7.3L1            CONDUIT     16.11    18  09:31      4.67    0.16    0.56
  MH4_7.3L2            CHANNEL      0.00     0  00:00      0.00    0.00    0.00
  OUTLET_4_CALIBRATION CONDUIT    356.11     0  00:01      4.56    0.02    0.02
  PURG9                CHANNEL     35.06    18  13:09      0.27    0.00    0.04
  PURG_13              CHANNEL     41.86    18  14:11      1.41    0.00    0.05
  PURG_BRANCH_L1       CHANNEL     56.45    18  09:32      1.39    0.00    0.02
  PURG_DELLROAD_CULVERT CONDUIT     24.85    18  10:17      5.52    0.08    0.25
  PURG_DUCKLAKE_CULVERT CONDUIT     22.90    18  09:40      3.95    0.22    0.58
  PURG_L1              CHANNEL     10.62    10  13:26      1.04    0.00    0.03
  PURG_L2              CHANNEL     10.59    10  16:22      5.00    0.00    0.01
  PURG_L3              CHANNEL     22.80    18  09:39      2.21    0.00    0.02
  PURG_L4              CHANNEL     22.61    18  10:22      0.33    0.00    0.02
  PURG_L5              CHANNEL     49.84    18  09:42      0.32    0.00    0.15
  PURG_L6              CHANNEL     46.77    18  10:06    >50.00    0.00    0.05
  PURG_L7              CHANNEL     43.84    18  11:17      0.87    0.00    0.07
  PURG_OUTLET          CHANNEL     31.18    18  17:04      1.35    0.00    0.02
  PURG_TARTAN_CULVERT  CONDUIT     10.59    10  16:20      2.75    0.33    0.53
  PURG_TOWNLINEROAD    CHANNEL     31.19    18  17:02      0.99    0.00    0.03
  TARTAN_ROAD          CHANNEL      0.00     0  00:00      0.00    0.00    0.00
  10.16_ORIFICE        ORIFICE     41.32     0  00:00                          
  10.16_WEIR_OUTLET    WEIR         0.00     0  00:00                      0.00
  LL-10.16_ROADWAY_WEIR WEIR         0.00     0  00:00                      0.00
  LL-8.1A_WEIR         WEIR        14.40    18  09:38                      0.45
  LL-8.1B_OVERFLOW     WEIR        12.70    18  09:45                      0.28
  LL-P10.16_OVERFLOW2  WEIR         0.00     0  00:00                      0.00
  LL-P10.6_WEIROUTLET  WEIR         0.68    18  13:39                      0.11
  LL-P5.1A_OUTLETWEIR  WEIR         1.40    18  13:19                      0.14
  LL_4.4_MARSHOUTLET   WEIR         1.39    18  14:28                      0.13
  LL_8.1_PONDINLET_WEIR WEIR        31.67    10  12:42                      1.00
  LL_OVERFLOW_OUTLET   WEIR         4.33    10  13:25                      0.19
  LL_OVERFLOW_OUTLET_2 WEIR         3.14    10  13:25                      0.19
  LL_OVERFLOW_OUTLET_3 WEIR         3.14    10  13:25                      0.19
  GW-OUTLET            DUMMY        1.00     0  00:00
  LL-P1.2_OUTLET       DUMMY        0.71    18  10:02
  
  
  ***************************
  Flow Classification Summary
  ***************************
  
  -------------------------------------------------------------------------------------
                      Adjusted    ---------- Fraction of Time in Flow Class ---------- 
                       /Actual         Up    Down  Sub   Sup   Up    Down  Norm  Inlet 
  Conduit               Length    Dry  Dry   Dry   Crit  Crit  Crit  Crit  Ltd   Ctrl  
  -------------------------------------------------------------------------------------
  10.16_CHANNEL_1         1.00   0.00  0.00  0.00  0.99  0.00  0.00  0.00  0.00  0.00
  10.16_CHANNEL_2         1.00   1.00  0.00  0.00  0.00  0.00  0.00  0.00  0.00  0.00
  10.16_OPENCHANNEL       3.10   0.00  0.00  0.00  0.00  0.00  1.00  0.00  0.00  0.00
  10.16_OVERFLOW_STRUCTURE   22.30   0.00  1.00  0.00  0.00  0.00  0.00  0.00  0.00  0.00
  192ND_STREET            1.00   1.00  0.00  0.00  0.00  0.00  0.00  0.00  0.00  0.00
  2533L1                  1.00   0.00  0.00  0.00  0.00  0.00  0.00  1.00  0.00  0.00
  2534L1                  1.00   0.00  0.00  0.00  0.00  0.00  0.00  1.00  0.00  0.00
  2537L1                  1.00   0.00  0.00  0.00  0.00  0.00  0.00  1.00  0.00  0.00
  2541L1                  1.00   0.00  0.00  0.00  0.00  0.00  0.00  1.00  0.00  0.00
  2542L1                  1.97   0.00  0.00  0.00  0.00  0.00  0.00  1.00  0.00  0.00
  2558L1                  3.23   0.11  0.82  0.00  0.06  0.02  0.00  0.00  0.88  0.00
  2560L1                  1.00   0.14  0.00  0.00  0.00  0.00  0.00  0.86  0.00  0.00
  2561L1                  3.57   0.11  0.39  0.00  0.01  0.00  0.49  0.00  0.00  0.00
  2582L1                  1.00   0.11  0.00  0.00  0.00  0.00  0.00  0.89  0.00  0.00
  2583L1                  2.24   0.11  0.00  0.00  0.00  0.01  0.00  0.88  0.01  0.00
  2585L1                  1.00   0.11  0.00  0.00  0.32  0.58  0.00  0.00  0.01  0.00
  2586L1                  1.00   0.00  0.12  0.00  0.88  0.00  0.00  0.00  0.88  0.00
  3008L1                  1.00   0.00  0.00  0.00  0.99  0.01  0.00  0.00  1.00  0.00
  3009L1                  3.14   0.00  0.00  0.00  1.00  0.00  0.00  0.00  0.00  0.00
  3011L1                  1.00   0.00  0.00  0.00  0.06  0.94  0.00  0.00  0.11  0.00
  3012L1                  1.31   0.00  0.00  0.00  1.00  0.00  0.00  0.00  1.00  0.00
  3085L1                  1.00   0.11  0.00  0.00  0.00  0.00  0.00  0.89  0.00  0.00
  3168L1                  2.73   0.11  0.00  0.00  0.81  0.08  0.00  0.00  0.44  0.00
  3168L2                  2.17   1.00  0.00  0.00  0.00  0.00  0.00  0.00  0.00  0.00
  3170L1                  1.00   0.11  0.00  0.00  0.81  0.08  0.00  0.00  0.81  0.00
  3170L2                  1.00   1.00  0.00  0.00  0.00  0.00  0.00  0.00  0.00  0.00
  3171L1                  3.08   0.11  0.00  0.00  0.00  0.00  0.00  0.89  0.00  0.00
  3173L1                  3.07   0.11  0.00  0.00  0.00  0.00  0.00  0.89  0.00  0.00
  3174L1                  1.00   0.11  0.00  0.00  0.00  0.00  0.00  0.89  0.00  0.00
  3177L1                  1.00   0.11  0.00  0.00  0.82  0.07  0.00  0.00  0.81  0.00
  3181L1                  4.11   0.11  0.00  0.00  0.00  0.00  0.00  0.89  0.00  0.00
  3182L1                  1.00   0.11  0.82  0.00  0.01  0.06  0.00  0.00  0.88  0.00
  3183L1                  1.00   0.11  0.00  0.00  0.81  0.08  0.00  0.00  0.81  0.00
  3183L2                  1.00   1.00  0.00  0.00  0.00  0.00  0.00  0.00  0.00  0.00
  3531L1                  1.00   0.11  0.00  0.00  0.00  0.00  0.00  0.89  0.00  0.00
  3532L1                  1.00   0.11  0.00  0.00  0.00  0.00  0.00  0.89  0.00  0.00
  3533L1                  1.00   0.11  0.00  0.00  0.00  0.00  0.00  0.89  0.00  0.00
  3534L1                  1.00   0.11  0.00  0.00  0.00  0.02  0.00  0.88  0.01  0.00
  3535L1                  1.00   0.11  0.00  0.00  0.00  0.00  0.00  0.89  0.00  0.00
  3536L1                  2.27   0.11  0.00  0.00  0.03  0.03  0.00  0.83  0.05  0.00
  4.4MARSH_OUTL1          1.00   0.00  0.00  0.00  1.00  0.00  0.00  0.00  0.00  0.00
  4.4_CHANNEL             1.00   0.00  0.00  0.00  1.00  0.00  0.00  0.00  0.00  0.00
  5107L1                  1.00   0.88  0.03  0.00  0.07  0.00  0.00  0.02  0.87  0.00
  5109L1                  1.00   0.00  0.78  0.00  0.22  0.00  0.00  0.00  0.70  0.00
  5114L1                  1.00   0.00  0.00  0.00  1.00  0.00  0.00  0.00  0.00  0.00
  5115L1                  1.45   0.00  0.05  0.00  0.94  0.00  0.00  0.00  0.99  0.00
  5130L1                  3.55   0.11  0.00  0.00  0.02  0.00  0.87  0.00  0.00  0.00
  5131L1                  1.00   0.22  0.00  0.00  0.00  0.00  0.00  0.78  0.00  0.00
  5132L1                  1.42   0.11  0.21  0.00  0.68  0.00  0.00  0.00  0.88  0.00
  5133L1                  1.54   0.11  0.00  0.00  0.00  0.00  0.00  0.89  0.00  0.00
  5134L1                 10.03   0.29  0.00  0.00  0.00  0.11  0.00  0.60  0.08  0.00
  5137L1                  1.00   0.11  0.00  0.00  0.00  0.00  0.89  0.00  0.00  0.00
  5139L1                  1.00   0.11  0.33  0.00  0.57  0.00  0.00  0.00  0.88  0.00
  5140L1                  8.13   0.23  0.00  0.00  0.00  0.06  0.00  0.72  0.05  0.00
  5144L1                  2.12   0.11  0.00  0.00  0.00  0.00  0.00  0.89  0.00  0.00
  5145L1                  2.52   0.00  0.58  0.00  0.42  0.00  0.00  0.00  1.00  0.00
  5146L1                  1.79   0.00  0.00  0.00  0.00  0.00  0.00  1.00  0.00  0.00
  5147L1                  1.67   0.00  0.00  0.00  0.00  0.00  0.00  1.00  0.00  0.00
  5149L1                  1.20   0.00  0.00  0.00  0.00  0.00  0.00  1.00  0.00  0.00
  5151L1                  1.00   0.00  0.00  0.00  0.00  0.00  0.00  1.00  0.00  0.00
  5152L1                  1.00   0.11  0.00  0.00  0.00  0.00  0.00  0.89  0.00  0.00
  5153L1                  1.00   0.00  0.11  0.00  0.00  0.00  0.89  0.00  0.00  0.00
  5157L1                  1.00   0.11  0.00  0.00  0.00  0.01  0.00  0.88  0.05  0.00
  5158L1                  7.30   0.00  0.93  0.00  0.04  0.03  0.00  0.00  0.88  0.00
  5177L1                  1.00   0.00  0.11  0.00  0.89  0.00  0.00  0.00  0.88  0.00
  5184L1                  1.00   0.11  0.00  0.00  0.00  0.00  0.00  0.89  0.00  0.00
  5185L1                  1.00   0.11  0.00  0.00  0.00  0.00  0.00  0.89  0.00  0.00
  5186L1                  1.00   0.11  0.00  0.00  0.53  0.36  0.00  0.00  0.00  0.00
  5187L1                  1.00   0.11  0.00  0.00  0.00  0.00  0.00  0.89  0.00  0.00
  5188L1                  1.00   0.11  0.00  0.00  0.00  0.00  0.00  0.89  0.00  0.00
  5189L1                  1.00   0.11  0.00  0.00  0.00  0.17  0.00  0.72  0.00  0.00
  5190L1                  2.36   0.11  0.00  0.00  0.00  0.07  0.00  0.82  0.06  0.00
  5261L1                  1.64   0.00  0.00  0.00  0.00  0.00  0.00  1.00  0.00  0.00
  5262L1                  1.00   0.00  0.00  0.00  0.00  0.00  0.00  1.00  0.00  0.00
  5272L1                  1.03   0.00  0.00  0.00  0.00  0.00  0.00  1.00  0.00  0.00
  5276L1                  1.00   0.00  0.00  0.00  0.59  0.41  0.00  0.00  0.99  0.00
  5279L1                  1.00   0.00  0.00  0.00  0.00  0.00  0.00  1.00  0.00  0.00
  5281L1                  2.79   0.00  0.00  0.00  0.00  0.18  0.00  0.82  0.00  0.00
  5287L1                  1.00   0.00  0.00  0.00  0.31  0.34  0.00  0.35  0.00  0.00
  5289L1                  1.00   0.00  0.00  0.00  0.44  0.00  0.00  0.56  0.00  0.00
  5290L1                  1.43   0.00  0.00  0.00  1.00  0.00  0.00  0.00  0.93  0.00
  5291L1                  3.21   0.00  0.00  0.00  0.00  0.00  0.00  1.00  0.00  0.00
  5306L1                  1.00   0.00  0.00  0.00  0.00  0.00  0.00  1.00  0.00  0.00
  5308L1                  1.00   0.00  0.00  0.00  0.46  0.54  0.00  0.00  0.83  0.00
  5311L1                  1.00   0.00  0.00  0.00  0.24  0.76  0.00  0.00  1.00  0.00
  5312L1                  1.00   0.00  0.00  0.00  0.00  0.00  0.00  1.00  0.00  0.00
  5314L1                  1.00   0.00  0.00  0.00  0.00  0.00  0.00  1.00  0.00  0.00
  5315L1                  1.00   0.00  0.00  0.00  0.39  0.61  0.00  0.00  0.68  0.00
  5385L1                  1.00   0.26  0.67  0.00  0.04  0.03  0.00  0.00  0.87  0.00
  5388_L1                 3.95   0.00  0.26  0.00  0.74  0.00  0.00  0.00  0.95  0.00
  5391L1                  1.00   0.00  0.00  0.00  0.34  0.66  0.00  0.00  0.08  0.00
  5400L1                  1.00   0.53  0.00  0.00  0.41  0.06  0.00  0.00  0.88  0.00
  5401L1                  1.14   0.00  0.93  0.00  0.05  0.00  0.00  0.01  0.87  0.00
  6433L1                  2.32   0.11  0.00  0.00  0.24  0.05  0.00  0.60  0.24  0.00
  6434L1                  1.00   0.11  0.25  0.00  0.27  0.38  0.00  0.00  0.37  0.00
  8146L1                  1.00   0.00  0.04  0.00  0.96  0.00  0.00  0.00  0.96  0.00
  9_1_OUTLET              1.58   0.00  0.00  0.00  0.00  1.00  0.00  0.00  0.00  0.00
  9_2_CHANNEL             1.00   0.00  0.00  0.00  0.22  0.78  0.00  0.00  0.02  0.00
  CDT-497                 1.39   0.12  0.00  0.00  0.00  0.00  0.00  0.88  0.00  0.00
  CDT-499                 1.00   0.00  0.00  0.00  1.00  0.00  0.00  0.00  0.00  0.00
  CDT-503                 1.00   0.02  0.00  0.00  0.98  0.00  0.00  0.00  0.94  0.00
  CDT-507                 1.00   0.11  0.00  0.00  0.80  0.09  0.00  0.00  0.72  0.00
  CDT-509                 2.69   0.00  0.00  0.00  1.00  0.00  0.00  0.00  0.00  0.00
  CDT-511                 1.00   0.00  0.00  0.00  1.00  0.00  0.00  0.00  0.84  0.00
  CDT-513                 4.28   0.00  0.00  0.00  1.00  0.00  0.00  0.00  0.00  0.00
  CDT-515                 1.00   0.00  0.00  0.00  1.00  0.00  0.00  0.00  0.99  0.00
  CDT-517                 3.95   0.00  0.00  0.00  1.00  0.00  0.00  0.00  0.00  0.00
  CDT-519                 1.00   0.01  0.00  0.00  0.99  0.00  0.00  0.00  0.99  0.00
  CDT-521                 4.10   0.01  0.00  0.00  0.99  0.00  0.00  0.00  0.00  0.00
  CDT-523                 1.00   0.01  0.00  0.00  0.99  0.00  0.00  0.00  0.00  0.00
  CDT-527                 4.08   0.04  0.00  0.00  0.96  0.00  0.00  0.00  0.00  0.00
  CDT-531                 1.23   0.00  0.00  0.00  0.00  0.04  0.00  0.96  0.03  0.00
  CDT-533                 3.01   0.00  0.00  0.00  1.00  0.00  0.00  0.00  1.00  0.00
  CDT-537                 1.00   0.11  0.02  0.00  0.87  0.00  0.00  0.00  0.01  0.00
  CDT-539                 1.00   0.01  0.02  0.00  0.00  0.00  0.98  0.00  0.00  0.00
  CDT-541                 1.00   0.00  0.11  0.00  0.89  0.00  0.00  0.00  0.88  0.00
  CDT-543                 2.14   0.00  0.00  0.00  0.21  0.79  0.00  0.00  0.04  0.00
  CDT-545                 1.27   0.00  0.00  0.00  1.00  0.00  0.00  0.00  1.00  0.00
  CDT-547                 1.00   0.00  0.23  0.00  0.77  0.00  0.00  0.00  0.88  0.00
  CDT-549                 1.00   0.00  0.00  0.00  1.00  0.00  0.00  0.00  1.00  0.00
  CDT-551                 1.00   0.00  0.00  0.00  1.00  0.00  0.00  0.00  1.00  0.00
  CDT-553                 1.00   0.00  0.00  0.00  1.00  0.00  0.00  0.00  1.00  0.00
  CDT-555                 1.00   0.00  0.00  0.00  1.00  0.00  0.00  0.00  0.00  0.00
  CDT-557                 1.00   0.00  0.00  0.00  1.00  0.00  0.00  0.00  0.63  0.00
  CDT-559                 1.00   0.01  0.00  0.00  0.99  0.00  0.00  0.00  0.00  0.00
  CDT-561                 1.00   0.02  0.00  0.00  0.98  0.00  0.00  0.00  0.96  0.00
  CDT-563                 1.00   0.01  0.00  0.00  0.98  0.00  0.00  0.00  0.94  0.00
  CDT-565                 1.00   0.02  0.00  0.00  0.98  0.00  0.00  0.00  0.12  0.00
  CDT-567                 1.00   0.02  0.00  0.00  0.98  0.00  0.00  0.00  0.92  0.00
  CDT-569                 1.00   0.02  0.00  0.00  0.98  0.00  0.00  0.00  0.03  0.00
  CDT-571                 1.00   0.02  0.00  0.00  0.98  0.00  0.00  0.00  0.02  0.00
  CDT-579                 1.00   0.02  0.00  0.00  0.98  0.00  0.00  0.00  0.48  0.00
  CDT-581                 1.00   0.02  0.00  0.00  0.98  0.00  0.00  0.00  0.01  0.00
  CDT-583                 1.00   0.02  0.00  0.00  0.98  0.00  0.00  0.00  0.01  0.00
  CDT-585                 1.00   0.03  0.00  0.00  0.97  0.00  0.00  0.00  0.00  0.00
  CDT-587                 1.00   0.03  0.00  0.00  0.97  0.00  0.00  0.00  0.00  0.00
  CDT-589                 1.00   0.04  0.00  0.00  0.96  0.00  0.00  0.00  0.00  0.00
  DUCK_LAKE_TRAIL         1.00   1.00  0.00  0.00  0.00  0.00  0.00  0.00  0.00  0.00
  KERBER_BLVD             1.39   1.00  0.00  0.00  0.00  0.00  0.00  0.00  0.00  0.00
  LL-10.13_OUTLET         1.00   0.00  0.00  0.00  1.00  0.00  0.00  0.00  0.00  0.00
  LL-10.16_CHANNEL        1.00   0.00  0.00  0.00  1.00  0.00  0.00  0.00  0.31  0.00
  LL-10.16_CHANNEL2       1.00   0.12  0.00  0.00  0.88  0.00  0.00  0.00  0.85  0.00
  LL-10.16_CHANNEL3       1.06   0.00  0.11  0.00  0.89  0.00  0.00  0.00  0.88  0.00
  LL-10.16_OUT2CHANNEL    1.00   0.12  0.00  0.00  0.88  0.00  0.00  0.00  0.00  0.00
  LL-10.16_STORMSEWERCHANNEL    1.00   0.03  0.00  0.00  0.01  0.97  0.00  0.00  0.00  0.00
  LL-10.9_CHANNEL_1       1.35   0.00  0.00  0.00  0.60  0.40  0.00  0.00  0.54  0.00
  LL-6.6_1                8.90   0.41  0.00  0.00  0.37  0.22  0.00  0.00  0.02  0.00
  LL-6.6_3L1              1.20   0.00  0.78  0.00  0.16  0.07  0.00  0.00  0.99  0.00
  LL-6.6_L2               1.00   0.00  0.00  0.00  1.00  0.00  0.00  0.00  1.00  0.00
  LL-7.5CHANNEL           1.00   0.18  0.00  0.00  0.75  0.07  0.00  0.00  0.00  0.00
  LL-8.1A_ORIFICE         2.06   0.18  0.00  0.00  0.60  0.00  0.00  0.22  0.00  0.00
  LL-8.1B_CHANNEL         1.34   0.18  0.39  0.00  0.43  0.00  0.00  0.00  0.88  0.00
  LL-8.1_DIVERSIONCHANNEL    1.16   0.18  0.57  0.00  0.25  0.00  0.00  0.00  0.86  0.00
  LL-8.1_DIVERSIONL1      1.00   0.12  0.00  0.00  0.88  0.01  0.00  0.00  0.00  0.00
  LL-8.1_DIVERSIONPIPE    2.64   0.74  0.20  0.00  0.04  0.02  0.00  0.00  0.87  0.00
  LL-8.1_DIVERSIONTOPOND    1.32   0.11  0.00  0.00  0.00  0.00  0.89  0.00  0.00  0.00
  LL-8.1_POND_CONNECTION    2.37   0.00  0.90  0.00  0.03  0.05  0.00  0.01  0.99  0.00
  LL-9.1_CHANNEL1         1.70   0.00  0.00  0.00  0.81  0.19  0.00  0.00  0.82  0.00
  LL-A1.5_OUTLETCHANNEL    1.00   0.00  0.11  0.00  0.89  0.00  0.00  0.00  0.88  0.00
  LL-A6.3_MARSH           1.00   0.10  0.00  0.00  0.90  0.00  0.00  0.00  0.00  0.00
  LL-A6.3_OUT             3.21   0.00  0.09  0.00  0.91  0.00  0.00  0.00  0.01  0.00
  LL-P1.1_OUTL1           4.45   0.00  0.00  0.00  1.00  0.00  0.00  0.00  0.12  0.00
  LL-P1.5_OUTL1           2.99   0.11  0.02  0.00  0.85  0.02  0.00  0.00  0.83  0.00
  LL-P10.11_OUTLET        1.00   0.00  0.00  0.00  0.00  0.00  0.00  1.00  0.00  0.00
  LL-P10.16_OUTLETL1     14.07   0.00  0.74  0.00  0.26  0.00  0.00  0.00  0.88  0.00
  LL-P10.16_OVERFLOWCHANNEL    3.41   0.00  0.00  0.00  1.00  0.00  0.00  0.00  0.02  0.00
  LL-P10.2_OUTL1          1.17   0.11  0.00  0.00  0.50  0.39  0.00  0.00  0.88  0.00
  LL-P10.7_OUTL1          1.00   0.00  0.00  0.00  0.00  1.00  0.00  0.00  1.00  0.00
  LL-P3.1L1               1.00   0.00  0.00  0.00  1.00  0.00  0.00  0.00  0.15  0.00
  LL-P3.1_OUTL1           1.00   0.00  0.00  0.00  0.07  0.93  0.00  0.00  0.00  0.00
  LL-P4.2L1               1.00   0.00  0.00  0.00  1.00  0.00  0.00  0.00  0.00  0.00
  LL-P4.3_OUTFALL         1.21   0.00  0.11  0.00  0.89  0.00  0.00  0.00  0.87  0.00
  LL-P5.1A_OUTLET         1.00   0.11  0.00  0.00  0.34  0.55  0.00  0.00  0.64  0.00
  LL-P6.2L1               1.32   0.00  0.00  0.00  0.00  0.00  0.00  1.00  0.00  0.00
  LL10.4_OUTLET           1.00   0.00  0.00  0.00  0.14  0.00  0.86  0.00  0.00  0.00
  LL_10.15_OUTLET         1.00   0.00  0.00  0.00  0.89  0.11  0.00  0.00  0.00  0.00
  LL_10.16_OUTL1          2.07   0.12  0.00  0.00  0.00  0.00  0.00  0.88  0.00  0.00
  LL_10.6_OUTLET          1.00   0.00  0.00  0.00  0.00  0.00  0.00  1.00  0.00  0.00
  LL_6.6_PIPE_OUTLET      5.98   0.41  0.51  0.00  0.01  0.07  0.00  0.00  0.95  0.00
  LL_OUTLET_STRUCT        1.00   0.00  0.00  0.00  0.25  0.75  0.00  0.00  1.00  0.00
  LOTUSLAKE_OUTLET        1.00   0.00  0.00  0.00  1.00  0.00  0.00  0.00  0.00  0.00
  MH1_7.3L1               1.00   0.11  0.00  0.00  0.81  0.08  0.00  0.00  0.10  0.00
  MH1_7.3L2               1.17   1.00  0.00  0.00  0.00  0.00  0.00  0.00  0.00  0.00
  MH2_7.3L1               1.89   0.11  0.00  0.00  0.81  0.08  0.00  0.00  0.81  0.00
  MH2_7.3L2               1.96   1.00  0.00  0.00  0.00  0.00  0.00  0.00  0.00  0.00
  MH3_7.3L2               1.01   1.00  0.00  0.00  0.00  0.00  0.00  0.00  0.00  0.00
  MH3_7.3_L1              1.00   0.59  0.05  0.00  0.28  0.08  0.00  0.00  0.68  0.00
  MH4_7.3L1               1.00   0.11  0.74  0.00  0.15  0.00  0.00  0.00  0.88  0.00
  MH4_7.3L2               1.00   1.00  0.00  0.00  0.00  0.00  0.00  0.00  0.00  0.00
  OUTLET_4_CALIBRATION    2.16   0.00  0.00  0.00  1.00  0.00  0.00  0.00  0.00  0.00
  PURG9                   1.00   0.02  0.01  0.00  0.97  0.00  0.00  0.00  0.00  0.00
  PURG_13                 1.00   0.02  0.00  0.00  0.98  0.00  0.00  0.00  0.00  0.00
  PURG_BRANCH_L1          1.00   0.01  0.72  0.00  0.27  0.00  0.00  0.00  0.88  0.00
  PURG_DELLROAD_CULVERT    1.17   0.01  0.00  0.00  0.99  0.00  0.00  0.00  0.52  0.00
  PURG_DUCKLAKE_CULVERT    1.77   0.01  0.00  0.00  0.99  0.00  0.00  0.00  0.00  0.00
  PURG_L1                 2.59   0.00  0.00  0.00  1.00  0.00  0.00  0.00  0.00  0.00
  PURG_L2                 4.29   0.00  0.00  0.00  1.00  0.00  0.00  0.00  0.00  0.00
  PURG_L3                 3.10   0.01  0.00  0.00  0.99  0.00  0.00  0.00  0.00  0.00
  PURG_L4                 3.68   0.01  0.00  0.00  0.99  0.00  0.00  0.00  0.00  0.00
  PURG_L5                 1.00   0.01  0.00  0.00  0.99  0.00  0.00  0.00  0.98  0.00
  PURG_L6                 1.00   0.01  0.00  0.00  0.99  0.00  0.00  0.00  0.14  0.00
  PURG_L7                 1.00   0.02  0.00  0.00  0.98  0.00  0.00  0.00  0.70  0.00
  PURG_OUTLET             4.92   0.04  0.00  0.00  0.96  0.00  0.00  0.00  0.00  0.00
  PURG_TARTAN_CULVERT     1.00   0.00  0.00  0.00  1.00  0.00  0.00  0.00  0.00  0.00
  PURG_TOWNLINEROAD       3.04   0.04  0.00  0.00  0.96  0.00  0.00  0.00  0.58  0.00
  TARTAN_ROAD             1.00   1.00  0.00  0.00  0.00  0.00  0.00  0.00  0.00  0.00
  
  
  *************************
  Conduit Surcharge Summary
  *************************
  
  ----------------------------------------------------------------------------
                                                           Hours        Hours 
                         --------- Hours Full --------   Above Full   Capacity
  Conduit                Both Ends  Upstream  Dnstream   Normal Flow   Limited
  ----------------------------------------------------------------------------
  2586L1                      0.01      0.01    675.32      0.01         0.01
  3009L1                      0.01      0.01      0.01      2.04         0.01
  3012L1                      0.01      0.01    766.99      0.01         0.01
  4.4_CHANNEL                 0.01      0.01      0.01     28.69         0.01
  5109L1                      0.01      0.01      3.13      0.01         0.01
  5177L1                      0.01      0.01    675.13      0.01         0.01
  5388_L1                     0.01      0.01      0.17      0.01         0.01
  9_1_OUTLET                  0.01      0.01      0.01      0.01         0.01
  CDT-541                     0.01      0.01    675.65      0.01         0.01
  CDT-547                     0.01      0.01     63.72      0.01         0.01
  CDT-549                     0.01      0.01    765.41      0.01         0.01
  CDT-553                     0.01      0.01    765.88      0.01         0.01
  LL-10.16_CHANNEL            0.01      0.01      0.01      0.01         0.01
  LL-10.16_CHANNEL3           0.01      0.01    675.73      0.01         0.01
  LL-6.6_L2                   0.01      0.01    767.00      0.01         0.01
  LL-8.1A_ORIFICE           185.19    185.20    185.19      5.79         4.14
  LL-8.1_DIVERSIONTOPOND        0.01      0.01      0.55      0.26         0.01
  LL-A1.5_OUTLETCHANNEL        0.01      0.01    675.61      0.01         0.01
  LL-A6.3_OUT                 0.01      0.01     50.69      0.01         0.01
  LL-P1.1_OUTL1               0.01      0.01    767.00      0.01         0.01
  LL-P3.1_OUTL1               0.01      8.71      0.01      0.01         0.01
  LL-P4.3_OUTFALL             0.01      0.01     19.53      0.01         0.01
  LL10.4_OUTLET               0.01      0.01    767.00      0.01         0.01
  MH4_7.3L1                   0.01      0.01      0.51      0.01         0.01
  

  Analysis begun on:  Fri Nov 29 13:38:55 2019
  Analysis ended on:  Fri Nov 29 13:39:49 2019
  Total elapsed time: 00:00:54