
  EPA STORM WATER MANAGEMENT MODEL - VERSION 5.1 (Build 5.1.013)
  --------------------------------------------------------------

  Scenario Run :  BASE 
  
  WARNING 04: minimum elevation drop used for Conduit 11
  WARNING 04: minimum elevation drop used for Conduit 7
  
  *************
  Element Count
  *************
  Number of rain gages ...... 0
  Number of subcatchments ... 0
  Number of nodes ........... 21
  Number of links ........... 20
  Number of pollutants ...... 0
  Number of land uses ....... 0
  
  
  ************
  Node Summary
  ************
                                           Invert      Max.    Ponded    External
  Name                 Type                 Elev.     Depth      Area    Inflow  
  -------------------------------------------------------------------------------
  A                    JUNCTION            284.65     10.00     100.0    Yes
  B                    JUNCTION            285.07     10.00     100.0    Yes
  C                    JUNCTION            285.50     10.00     100.0    Yes
  D                    JUNCTION            285.93     10.00     100.0    Yes
  E                    JUNCTION            286.36     10.00     100.0    Yes
  F                    JUNCTION            287.22     10.00     100.0    Yes
  G                    JUNCTION            287.22     10.00     100.0    Yes
  H                    JUNCTION            287.65     10.00     100.0    Yes
  I                    JUNCTION            288.08     10.00     100.0    Yes
  J                    JUNCTION            288.95     10.00     100.0    Yes
  K                    JUNCTION            288.95     10.00     100.0    Yes
  L                    JUNCTION            289.38     10.00     100.0    Yes
  M                    JUNCTION            289.82     10.00     100.0    Yes
  N                    JUNCTION            290.25     10.00     100.0    Yes
  O                    JUNCTION            290.69     10.00     100.0    Yes
  P                    JUNCTION            291.13     10.00     100.0    Yes
  Q                    JUNCTION            291.56     10.00     100.0    Yes
  R                    JUNCTION            292.00     10.00     100.0    Yes
  S                    JUNCTION            292.44     10.00     100.0    Yes
  T                    JUNCTION            292.44     10.00     100.0    Yes
  OUTFALL              OUTFALL             282.24      2.00       0.0
  
  
  ************
  Link Summary
  ************
  Name             From Node        To Node          Type            Length    %Slope Roughness
  ---------------------------------------------------------------------------------------------
  1                A                OUTFALL          CONDUIT        10000.0    0.0240    0.0120
  10               J                I                CONDUIT        10000.0    0.0087    0.0120
  11               K                J                CONDUIT        10000.0    0.0000    0.0120
  12               L                K                CONDUIT        10000.0    0.0043    0.0120
  13               M                L                CONDUIT        10000.0    0.0043    0.0120
  14               N                M                CONDUIT        10000.0    0.0044    0.0120
  15               O                N                CONDUIT        10000.0    0.0044    0.0120
  16               P                O                CONDUIT        10000.0    0.0044    0.0120
  17               Q                P                CONDUIT        10000.0    0.0044    0.0120
  18               R                Q                CONDUIT        10000.0    0.0044    0.0120
  19               S                R                CONDUIT        10000.0    0.0044    0.0120
  2                B                A                CONDUIT        10000.0    0.0043    0.0120
  3                C                B                CONDUIT        10000.0    0.0043    0.0120
  4                D                C                CONDUIT        10000.0    0.0043    0.0120
  5                E                D                CONDUIT        10000.0    0.0043    0.0120
  6                F                E                CONDUIT        10000.0    0.0086    0.0120
  7                G                F                CONDUIT        10000.0    0.0000    0.0120
  8                H                G                CONDUIT        10000.0    0.0043    0.0120
  9                I                H                CONDUIT        10000.0    0.0043    0.0120
  20               T                S                IDEAL PUMP  
  
  
  *********************
  Cross Section Summary
  *********************
                                        Full     Full     Hyd.     Max.   No. of     Full
  Conduit          Shape               Depth     Area     Rad.    Width  Barrels     Flow
  ---------------------------------------------------------------------------------------
  1                CIRCULAR             2.00     3.14     0.50     2.00        1  2555.28
  10               CIRCULAR             2.00     3.14     0.50     2.00        1  1535.03
  11               CIRCULAR             2.00     3.14     0.50     2.00        1    28.79
  12               CIRCULAR             2.00     3.14     0.50     2.00        1  1086.65
  13               CIRCULAR             1.00     0.79     0.25     1.00        1   171.27
  14               CIRCULAR             1.00     0.79     0.25     1.00        1   171.39
  15               CIRCULAR             2.00     3.14     0.50     2.00        1  1089.10
  16               CIRCULAR             2.00     3.14     0.50     2.00        1  1089.92
  17               CIRCULAR             2.00     3.14     0.50     2.00        1  1090.74
  18               CIRCULAR             2.00     3.14     0.50     2.00        1  1091.56
  19               CIRCULAR             2.00     3.14     0.50     2.00        1  1092.38
  2                CIRCULAR             2.00     3.14     0.50     2.00        1  1078.53
  3                CIRCULAR             2.00     3.14     0.50     2.00        1  1079.34
  4                CIRCULAR             2.00     3.14     0.50     2.00        1  1080.15
  5                CIRCULAR             2.00     3.14     0.50     2.00        1  1080.96
  6                CIRCULAR             2.00     3.14     0.50     2.00        1  1530.35
  7                CIRCULAR             2.00     3.14     0.50     2.00        1    28.79
  8                CIRCULAR             2.00     3.14     0.50     2.00        1  1083.40
  9                CIRCULAR             2.00     3.14     0.50     2.00        1  1084.21
  
  
  
  *********************************************************
  NOTE: The summary statistics displayed in this report are
  based on results found at every computational time step,  
  not just on results from each reporting time step.
  *********************************************************
  
  ****************
  Analysis Options
  ****************
  Flow Units ............... LPS
  Process Models:
    Rainfall/Runoff ........ NO
    RDII ................... NO
    Snowmelt ............... NO
    Groundwater ............ NO
    Flow Routing ........... YES
    Ponding Allowed ........ NO
    Water Quality .......... NO
  Flow Routing Method ...... DYNWAVE
  Surcharge Method ......... EXTRAN
  Starting Date ............ 02/18/2013 00:00:00
  Ending Date .............. 02/18/2013 03:00:00
  Antecedent Dry Days ...... 0.0
  Report Time Step ......... 00:00:10
  Routing Time Step ........ 1.00 sec
  Variable Time Step ....... YES
  Maximum Trials ........... 8
  Number of Threads ........ 1
  Head Tolerance ........... 0.000010 m
  
  
  **************************        Volume        Volume
  Flow Routing Continuity        hectare-m      10^6 ltr
  **************************     ---------     ---------
  Dry Weather Inflow .......         0.000         0.000
  Wet Weather Inflow .......         0.000         0.000
  Groundwater Inflow .......         0.000         0.000
  RDII Inflow ..............         0.000         0.000
  External Inflow ..........        10.800       107.998
  External Outflow .........         0.066         0.657
  Flooding Loss ............         0.000         0.000
  Evaporation Loss .........         0.000         0.000
  Exfiltration Loss ........         0.000         0.000
  Initial Stored Volume ....         0.000         0.001
  Final Stored Volume ......        10.892       108.920
  Continuity Error (%) .....        -1.461
  
  
  *************************
  Highest Continuity Errors
  *************************
  Node K (97.89%)
  Node G (97.87%)
  Node N (92.45%)
  Node R (91.92%)
  Node E (90.78%)
  
  
  ***************************
  Time-Step Critical Elements
  ***************************
  None
  
  
  ********************************
  Highest Flow Instability Indexes
  ********************************
  All links are stable.
  
  
  *************************
  Routing Time Step Summary
  *************************
  Minimum Time Step           :     0.50 sec
  Average Time Step           :     1.00 sec
  Maximum Time Step           :     1.00 sec
  Percent in Steady State     :     0.00
  Average Iterations per Step :     2.00
  Percent Not Converging      :     0.01
  
  
  ******************
  Node Depth Summary
  ******************
  
  ---------------------------------------------------------------------------------
                                 Average  Maximum  Maximum  Time of Max    Reported
                                   Depth    Depth      HGL   Occurrence   Max Depth
  Node                 Type       Meters   Meters   Meters  days hr:min      Meters
  ---------------------------------------------------------------------------------
  A                    JUNCTION     0.28     0.47   285.11     0  03:00        0.47
  B                    JUNCTION     0.27     0.46   285.53     0  03:00        0.46
  C                    JUNCTION     0.27     0.46   285.96     0  03:00        0.46
  D                    JUNCTION     0.27     0.46   286.39     0  03:00        0.46
  E                    JUNCTION     0.28     0.47   286.83     0  03:00        0.47
  F                    JUNCTION     0.26     0.42   287.64     0  03:00        0.42
  G                    JUNCTION     0.28     0.49   287.71     0  03:00        0.49
  H                    JUNCTION     0.27     0.46   288.11     0  03:00        0.46
  I                    JUNCTION     0.28     0.47   288.55     0  03:00        0.47
  J                    JUNCTION     0.26     0.42   289.37     0  03:00        0.42
  K                    JUNCTION     0.28     0.49   289.44     0  03:00        0.49
  L                    JUNCTION     0.31     0.52   289.90     0  03:00        0.52
  M                    JUNCTION     0.37     0.64   290.46     0  03:00        0.64
  N                    JUNCTION     0.31     0.54   290.79     0  03:00        0.54
  O                    JUNCTION     0.27     0.46   291.15     0  03:00        0.46
  P                    JUNCTION     0.27     0.46   291.59     0  03:00        0.46
  Q                    JUNCTION     0.27     0.46   292.03     0  03:00        0.46
  R                    JUNCTION     0.29     0.55   292.55     0  03:00        0.55
  S                    JUNCTION     0.69     1.08   293.52     0  03:00        1.08
  T                    JUNCTION     0.00     0.00   292.44     0  00:00        0.00
  OUTFALL              OUTFALL      0.09     0.18   282.42     0  03:00        0.18
  
  
  *******************
  Node Inflow Summary
  *******************
  
  -------------------------------------------------------------------------------------------------
                                  Maximum  Maximum                  Lateral       Total        Flow
                                  Lateral    Total  Time of Max      Inflow      Inflow     Balance
                                   Inflow   Inflow   Occurrence      Volume      Volume       Error
  Node                 Type           LPS      LPS  days hr:min    10^6 ltr    10^6 ltr     Percent
  -------------------------------------------------------------------------------------------------
  A                    JUNCTION    500.00   623.65     0  03:00         5.4        5.95     806.416
  B                    JUNCTION    500.00   623.00     0  03:00         5.4        5.95     972.219
  C                    JUNCTION    500.00   623.41     0  03:00         5.4        5.95     982.341
  D                    JUNCTION    500.00   627.19     0  03:00         5.4        5.96     981.398
  E                    JUNCTION    500.00   649.22     0  03:00         5.4        6.11     984.088
  F                    JUNCTION    500.00   542.62     0  03:00         5.4        5.53     681.734
  G                    JUNCTION    500.00   624.71     0  03:00         5.4        5.96    4586.026
  H                    JUNCTION    500.00   627.48     0  03:00         5.4        5.96     967.489
  I                    JUNCTION    500.00   649.63     0  03:00         5.4        6.11     981.757
  J                    JUNCTION    500.00   544.66     0  03:00         5.4        5.53     680.222
  K                    JUNCTION    500.00   655.24     0  03:00         5.4        6.08    4636.563
  L                    JUNCTION    500.00   622.65     0  03:00         5.4        5.95     779.338
  M                    JUNCTION    500.00   596.72     0  03:00         5.4        5.85     954.226
  N                    JUNCTION    500.00   624.13     0  03:00         5.4        5.96    1224.364
  O                    JUNCTION    500.00   624.11     0  03:00         5.4        5.95     968.173
  P                    JUNCTION    500.00   626.24     0  03:00         5.4        5.96     974.633
  Q                    JUNCTION    500.00   664.59     0  03:00         5.4        6.05     980.104
  R                    JUNCTION    500.00  1058.74     0  03:00         5.4        7.99    1136.930
  S                    JUNCTION    500.00  1000.00     0  00:00         5.4        10.8     316.867
  T                    JUNCTION    500.00   500.00     0  00:00         5.4         5.4       0.000
  OUTFALL              OUTFALL       0.00   151.20     0  03:00           0       0.657       0.000
  
  
  **********************
  Node Surcharge Summary
  **********************
  
  Surcharging occurs when water rises above the top of the highest conduit.
  ---------------------------------------------------------------------
                                               Max. Height   Min. Depth
                                   Hours       Above Crown    Below Rim
  Node                 Type      Surcharged         Meters       Meters
  ---------------------------------------------------------------------
  T                    JUNCTION        3.00          0.000       10.000
  
  
  *********************
  Node Flooding Summary
  *********************
  
  No nodes were flooded.
  
  
  ***********************
  Outfall Loading Summary
  ***********************
  
  -----------------------------------------------------------
                         Flow       Avg       Max       Total
                         Freq      Flow      Flow      Volume
  Outfall Node           Pcnt       LPS       LPS    10^6 ltr
  -----------------------------------------------------------
  OUTFALL              100.00     60.84    151.20       0.657
  -----------------------------------------------------------
  System               100.00     60.84    151.20       0.657
  
  
  ********************
  Link Flow Summary
  ********************
  
  -----------------------------------------------------------------------------
                                 Maximum  Time of Max   Maximum    Max/    Max/
                                  |Flow|   Occurrence   |Veloc|    Full    Full
  Link                 Type          LPS  days hr:min     m/sec    Flow   Depth
  -----------------------------------------------------------------------------
  1                    CONDUIT    151.20     0  03:00      0.46    0.06    0.16
  10                   CONDUIT    149.63     0  03:00      0.29    0.10    0.22
  11                   CONDUIT     44.66     0  03:00      0.08    1.55    0.23
  12                   CONDUIT    155.24     0  03:00      0.25    0.14    0.25
  13                   CONDUIT    122.65     0  03:00      0.26    0.72    0.58
  14                   CONDUIT     96.72     0  03:00      0.20    0.56    0.59
  15                   CONDUIT    124.13     0  03:00      0.20    0.11    0.25
  16                   CONDUIT    124.11     0  03:00      0.23    0.11    0.23
  17                   CONDUIT    126.24     0  03:00      0.23    0.12    0.23
  18                   CONDUIT    164.59     0  03:00      0.26    0.15    0.25
  19                   CONDUIT    558.74     0  03:00      0.46    0.51    0.41
  2                    CONDUIT    123.65     0  03:00      0.22    0.11    0.23
  3                    CONDUIT    123.00     0  03:00      0.23    0.11    0.23
  4                    CONDUIT    123.41     0  03:00      0.23    0.11    0.23
  5                    CONDUIT    127.19     0  03:00      0.23    0.12    0.23
  6                    CONDUIT    149.22     0  03:00      0.29    0.10    0.22
  7                    CONDUIT     42.62     0  03:00      0.08    1.48    0.23
  8                    CONDUIT    124.71     0  03:00      0.22    0.12    0.24
  9                    CONDUIT    127.48     0  03:00      0.23    0.12    0.23
  20                   PUMP       500.00     0  00:00                          
  
  
  ***************************
  Flow Classification Summary
  ***************************
  
  -------------------------------------------------------------------------------------
                      Adjusted    ---------- Fraction of Time in Flow Class ---------- 
                       /Actual         Up    Down  Sub   Sup   Up    Down  Norm  Inlet 
  Conduit               Length    Dry  Dry   Dry   Crit  Crit  Crit  Crit  Ltd   Ctrl  
  -------------------------------------------------------------------------------------
  1                       1.00   0.00  0.00  0.00  1.00  0.00  0.00  0.00  0.00  0.00
  10                      1.00   0.00  0.00  0.00  1.00  0.00  0.00  0.00  0.76  0.00
  11                      1.00   0.00  0.00  0.00  1.00  0.00  0.00  0.00  0.00  0.00
  12                      1.00   0.00  0.00  0.00  1.00  0.00  0.00  0.00  0.00  0.00
  13                      1.00   0.00  0.00  0.00  1.00  0.00  0.00  0.00  0.00  0.00
  14                      1.00   0.00  0.00  0.00  1.00  0.00  0.00  0.00  0.97  0.00
  15                      1.00   0.00  0.00  0.00  1.00  0.00  0.00  0.00  0.97  0.00
  16                      1.00   0.00  0.00  0.00  1.00  0.00  0.00  0.00  0.00  0.00
  17                      1.00   0.00  0.00  0.00  1.00  0.00  0.00  0.00  0.00  0.00
  18                      1.00   0.00  0.00  0.00  1.00  0.00  0.00  0.00  0.20  0.00
  19                      1.00   0.00  0.00  0.00  1.00  0.00  0.00  0.00  0.00  0.00
  2                       1.00   0.00  0.00  0.00  1.00  0.00  0.00  0.00  0.95  0.00
  3                       1.00   0.00  0.00  0.00  1.00  0.00  0.00  0.00  0.00  0.00
  4                       1.00   0.00  0.00  0.00  1.00  0.00  0.00  0.00  0.00  0.00
  5                       1.00   0.00  0.00  0.00  1.00  0.00  0.00  0.00  0.00  0.00
  6                       1.00   0.00  0.00  0.00  1.00  0.00  0.00  0.00  0.76  0.00
  7                       1.00   0.00  0.00  0.00  1.00  0.00  0.00  0.00  0.00  0.00
  8                       1.00   0.00  0.00  0.00  1.00  0.00  0.00  0.00  0.53  0.00
  9                       1.00   0.00  0.00  0.00  1.00  0.00  0.00  0.00  0.00  0.00
  
  
  *************************
  Conduit Surcharge Summary
  *************************
  
  ----------------------------------------------------------------------------
                                                           Hours        Hours 
                         --------- Hours Full --------   Above Full   Capacity
  Conduit                Both Ends  Upstream  Dnstream   Normal Flow   Limited
  ----------------------------------------------------------------------------
  11                          0.01      0.01      0.01      0.47         0.01
  7                           0.01      0.01      0.01      0.44         0.01
  
  
  ***************
  Pumping Summary
  ***************
  
  ---------------------------------------------------------------------------------------------------------
                                                  Min       Avg       Max     Total     Power    % Time Off
                        Percent   Number of      Flow      Flow      Flow    Volume     Usage    Pump Curve
  Pump                 Utilized   Start-Ups       LPS       LPS       LPS  10^6 ltr     Kw-hr    Low   High
  ---------------------------------------------------------------------------------------------------------
  20                     100.00           1      0.00    500.00    500.00     5.400     10.15    0.0    0.0
  

  Analysis begun on:  Fri Nov 29 15:01:31 2019
  Analysis ended on:  Fri Nov 29 15:01:31 2019
  Total elapsed time: < 1 sec