
  EPA STORM WATER MANAGEMENT MODEL - VERSION 5.1 (Build 5.1.013)
  --------------------------------------------------------------

       Extran with surcharge in 2 foot circular conduits 
       SWMM CRADA Example 1 
  
  WARNING 04: minimum elevation drop used for Conduit pipe1
  WARNING 04: minimum elevation drop used for Conduit pipe2
  WARNING 04: minimum elevation drop used for Conduit pipe3
  WARNING 04: minimum elevation drop used for Conduit pipe4
  WARNING 04: minimum elevation drop used for Conduit pipe5
  WARNING 04: minimum elevation drop used for Conduit pipe6
  WARNING 04: minimum elevation drop used for Conduit pipe7
  WARNING 04: minimum elevation drop used for Conduit pipe8
  WARNING 04: minimum elevation drop used for Conduit pipe9
  
  *********************************************************
  NOTE: The summary statistics displayed in this report are
  based on results found at every computational time step,  
  not just on results from each reporting time step.
  *********************************************************
  
  ****************
  Analysis Options
  ****************
  Flow Units ............... CFS
  Process Models:
    Rainfall/Runoff ........ NO
    RDII ................... NO
    Snowmelt ............... NO
    Groundwater ............ NO
    Flow Routing ........... YES
    Ponding Allowed ........ NO
    Water Quality .......... NO
  Flow Routing Method ...... DYNWAVE
  Surcharge Method ......... EXTRAN
  Starting Date ............ 02/22/2002 00:00:00
  Ending Date .............. 02/22/2002 01:40:00
  Antecedent Dry Days ...... 0.0
  Report Time Step ......... 00:01:00
  Routing Time Step ........ 1.00 sec
  Variable Time Step ....... YES
  Maximum Trials ........... 8
  Number of Threads ........ 1
  Head Tolerance ........... 0.005000 ft
  
  
  **************************        Volume        Volume
  Flow Routing Continuity        acre-feet      10^6 gal
  **************************     ---------     ---------
  Dry Weather Inflow .......         0.000         0.000
  Wet Weather Inflow .......         0.000         0.000
  Groundwater Inflow .......         0.000         0.000
  RDII Inflow ..............         0.000         0.000
  External Inflow ..........         0.000         0.000
  External Outflow .........         0.000         0.000
  Flooding Loss ............         0.000         0.000
  Evaporation Loss .........         0.000         0.000
  Exfiltration Loss ........         0.000         0.000
  Initial Stored Volume ....         0.000         0.000
  Final Stored Volume ......         0.000         0.000
  Continuity Error (%) .....         0.000
  
  
  ***************************
  Time-Step Critical Elements
  ***************************
  None
  
  
  ********************************
  Highest Flow Instability Indexes
  ********************************
  All links are stable.
  
  
  ******************
  Node Depth Summary
  ******************
  
  ---------------------------------------------------------------------------------
                                 Average  Maximum  Maximum  Time of Max    Reported
                                   Depth    Depth      HGL   Occurrence   Max Depth
  Node                 Type         Feet     Feet     Feet  days hr:min        Feet
  ---------------------------------------------------------------------------------
  Inflow               JUNCTION  -nan(ind)     0.00    10.00     0  00:00        0.00
  mid1                 JUNCTION  -nan(ind)     0.00    10.00     0  00:00        0.00
  mid2                 JUNCTION  -nan(ind)     0.00    10.00     0  00:00        0.00
  mid3                 JUNCTION  -nan(ind)     0.00    10.00     0  00:00        0.00
  mid4                 JUNCTION  -nan(ind)     0.00    10.00     0  00:00        0.00
  mid5                 JUNCTION  -nan(ind)     0.00    10.00     0  00:00        0.00
  mid6                 JUNCTION  -nan(ind)     0.00    10.00     0  00:00        0.00
  mid7                 JUNCTION  -nan(ind)     0.00    10.00     0  00:00        0.00
  mid8                 JUNCTION  -nan(ind)     0.00    10.00     0  00:00        0.00
  mid9                 JUNCTION  -nan(ind)     0.00    10.00     0  00:00        0.00
  side1                JUNCTION  -nan(ind)     0.00    10.00     0  00:00        0.00
  side2                JUNCTION  -nan(ind)     0.00    10.00     0  00:00        0.00
  side3                JUNCTION  -nan(ind)     0.00    10.00     0  00:00        0.00
  side4                JUNCTION  -nan(ind)     0.00    10.00     0  00:00        0.00
  side5                JUNCTION  -nan(ind)     0.00    10.00     0  00:00        0.00
  side6                JUNCTION  -nan(ind)     0.00    10.00     0  00:00        0.00
  side7                JUNCTION  -nan(ind)     0.00    10.00     0  00:00        0.00
  side8                JUNCTION  -nan(ind)     0.00    10.00     0  00:00        0.00
  Outlet               OUTFALL   -nan(ind)     0.00    10.00     0  00:00        0.00
  
  
  *******************
  Node Inflow Summary
  *******************
  
  -------------------------------------------------------------------------------------------------
                                  Maximum  Maximum                  Lateral       Total        Flow
                                  Lateral    Total  Time of Max      Inflow      Inflow     Balance
                                   Inflow   Inflow   Occurrence      Volume      Volume       Error
  Node                 Type           CFS      CFS  days hr:min    10^6 gal    10^6 gal     Percent
  -------------------------------------------------------------------------------------------------
  Inflow               JUNCTION      0.00     0.00     0  00:00           0           0       0.000 gal
  mid1                 JUNCTION      0.00     0.00     0  00:00           0           0       0.000 gal
  mid2                 JUNCTION      0.00     0.00     0  00:00           0           0       0.000 gal
  mid3                 JUNCTION      0.00     0.00     0  00:00           0           0       0.000 gal
  mid4                 JUNCTION      0.00     0.00     0  00:00           0           0       0.000 gal
  mid5                 JUNCTION      0.00     0.00     0  00:00           0           0       0.000 gal
  mid6                 JUNCTION      0.00     0.00     0  00:00           0           0       0.000 gal
  mid7                 JUNCTION      0.00     0.00     0  00:00           0           0       0.000 gal
  mid8                 JUNCTION      0.00     0.00     0  00:00           0           0       0.000 gal
  mid9                 JUNCTION      0.00     0.00     0  00:00           0           0       0.000 gal
  side1                JUNCTION      0.00     0.00     0  00:00           0           0       0.000 gal
  side2                JUNCTION      0.00     0.00     0  00:00           0           0       0.000 gal
  side3                JUNCTION      0.00     0.00     0  00:00           0           0       0.000 gal
  side4                JUNCTION      0.00     0.00     0  00:00           0           0       0.000 gal
  side5                JUNCTION      0.00     0.00     0  00:00           0           0       0.000 gal
  side6                JUNCTION      0.00     0.00     0  00:00           0           0       0.000 gal
  side7                JUNCTION      0.00     0.00     0  00:00           0           0       0.000 gal
  side8                JUNCTION      0.00     0.00     0  00:00           0           0       0.000 gal
  Outlet               OUTFALL       0.00     0.00     0  00:00           0           0       0.000 gal
  
  
  **********************
  Node Surcharge Summary
  **********************
  
  No nodes were surcharged.
  
  
  *********************
  Node Flooding Summary
  *********************
  
  No nodes were flooded.
  
  
  ***********************
  Outfall Loading Summary
  ***********************
  
  -----------------------------------------------------------
                         Flow       Avg       Max       Total
                         Freq      Flow      Flow      Volume
  Outfall Node           Pcnt       CFS       CFS    10^6 gal
  -----------------------------------------------------------
  Outlet              -nan(ind)      0.00      0.00       0.000
  -----------------------------------------------------------
  System              -nan(ind)      0.00      0.00       0.000
  
  
  ********************
  Link Flow Summary
  ********************
  
  -----------------------------------------------------------------------------
                                 Maximum  Time of Max   Maximum    Max/    Max/
                                  |Flow|   Occurrence   |Veloc|    Full    Full
  Link                 Type          CFS  days hr:min    ft/sec    Flow   Depth
  -----------------------------------------------------------------------------
  pipe1                CONDUIT      0.00     0  00:00      0.00    0.00    0.00
  side1                CONDUIT      0.00     0  00:00      0.00    0.00    0.00
  pipe2                CONDUIT      0.00     0  00:00      0.00    0.00    0.00
  side2                CONDUIT      0.00     0  00:00      0.00    0.00    0.00
  pipe3                CONDUIT      0.00     0  00:00      0.00    0.00    0.00
  side3                CONDUIT      0.00     0  00:00      0.00    0.00    0.00
  pipe4                CONDUIT      0.00     0  00:00      0.00    0.00    0.00
  side4                CONDUIT      0.00     0  00:00      0.00    0.00    0.00
  pipe5                CONDUIT      0.00     0  00:00      0.00    0.00    0.00
  side5                CONDUIT      0.00     0  00:00      0.00    0.00    0.00
  pipe6                CONDUIT      0.00     0  00:00      0.00    0.00    0.00
  side6                CONDUIT      0.00     0  00:00      0.00    0.00    0.00
  pipe7                CONDUIT      0.00     0  00:00      0.00    0.00    0.00
  side7                CONDUIT      0.00     0  00:00      0.00    0.00    0.00
  pipe8                CONDUIT      0.00     0  00:00      0.00    0.00    0.00
  side8                CONDUIT      0.00     0  00:00      0.00    0.00    0.00
  pipe9                CONDUIT      0.00     0  00:00      0.00    0.00    0.00
  outlet               CONDUIT      0.00     0  00:00      0.00    0.00    0.00
  
  
  ***************************
  Flow Classification Summary
  ***************************
  
  -------------------------------------------------------------------------------------
                      Adjusted    ---------- Fraction of Time in Flow Class ---------- 
                       /Actual         Up    Down  Sub   Sup   Up    Down  Norm  Inlet 
  Conduit               Length    Dry  Dry   Dry   Crit  Crit  Crit  Crit  Ltd   Ctrl  
  -------------------------------------------------------------------------------------
  pipe1                   1.00   -nan(ind)  -nan(ind)  -nan(ind)  -nan(ind)  -nan(ind)  -nan(ind)  -nan(ind)  -nan(ind)  -nan(ind)
  side1                   1.00   -nan(ind)  -nan(ind)  -nan(ind)  -nan(ind)  -nan(ind)  -nan(ind)  -nan(ind)  -nan(ind)  -nan(ind)
  pipe2                   1.00   -nan(ind)  -nan(ind)  -nan(ind)  -nan(ind)  -nan(ind)  -nan(ind)  -nan(ind)  -nan(ind)  -nan(ind)
  side2                   1.00   -nan(ind)  -nan(ind)  -nan(ind)  -nan(ind)  -nan(ind)  -nan(ind)  -nan(ind)  -nan(ind)  -nan(ind)
  pipe3                   1.00   -nan(ind)  -nan(ind)  -nan(ind)  -nan(ind)  -nan(ind)  -nan(ind)  -nan(ind)  -nan(ind)  -nan(ind)
  side3                   1.00   -nan(ind)  -nan(ind)  -nan(ind)  -nan(ind)  -nan(ind)  -nan(ind)  -nan(ind)  -nan(ind)  -nan(ind)
  pipe4                   1.00   -nan(ind)  -nan(ind)  -nan(ind)  -nan(ind)  -nan(ind)  -nan(ind)  -nan(ind)  -nan(ind)  -nan(ind)
  side4                   1.00   -nan(ind)  -nan(ind)  -nan(ind)  -nan(ind)  -nan(ind)  -nan(ind)  -nan(ind)  -nan(ind)  -nan(ind)
  pipe5                   1.00   -nan(ind)  -nan(ind)  -nan(ind)  -nan(ind)  -nan(ind)  -nan(ind)  -nan(ind)  -nan(ind)  -nan(ind)
  side5                   1.00   -nan(ind)  -nan(ind)  -nan(ind)  -nan(ind)  -nan(ind)  -nan(ind)  -nan(ind)  -nan(ind)  -nan(ind)
  pipe6                   1.00   -nan(ind)  -nan(ind)  -nan(ind)  -nan(ind)  -nan(ind)  -nan(ind)  -nan(ind)  -nan(ind)  -nan(ind)
  side6                   1.00   -nan(ind)  -nan(ind)  -nan(ind)  -nan(ind)  -nan(ind)  -nan(ind)  -nan(ind)  -nan(ind)  -nan(ind)
  pipe7                   1.00   -nan(ind)  -nan(ind)  -nan(ind)  -nan(ind)  -nan(ind)  -nan(ind)  -nan(ind)  -nan(ind)  -nan(ind)
  side7                   1.00   -nan(ind)  -nan(ind)  -nan(ind)  -nan(ind)  -nan(ind)  -nan(ind)  -nan(ind)  -nan(ind)  -nan(ind)
  pipe8                   1.00   -nan(ind)  -nan(ind)  -nan(ind)  -nan(ind)  -nan(ind)  -nan(ind)  -nan(ind)  -nan(ind)  -nan(ind)
  side8                   1.00   -nan(ind)  -nan(ind)  -nan(ind)  -nan(ind)  -nan(ind)  -nan(ind)  -nan(ind)  -nan(ind)  -nan(ind)
  pipe9                   1.00   -nan(ind)  -nan(ind)  -nan(ind)  -nan(ind)  -nan(ind)  -nan(ind)  -nan(ind)  -nan(ind)  -nan(ind)
  outlet                  1.00   -nan(ind)  -nan(ind)  -nan(ind)  -nan(ind)  -nan(ind)  -nan(ind)  -nan(ind)  -nan(ind)  -nan(ind)
  
  
  *************************
  Conduit Surcharge Summary
  *************************
  
  No conduits were surcharged.
  

  Analysis begun on:  Sat Nov 30 08:11:45 2019
  Analysis ended on:  Sat Nov 30 08:11:45 2019
  Total elapsed time: < 1 sec