
  EPA STORM WATER MANAGEMENT MODEL - VERSION 5.1 (Build 5.1.013)
  --------------------------------------------------------------

  WARNING 04: minimum elevation drop used for Conduit FM-122
  WARNING 04: minimum elevation drop used for Conduit FM-123
  WARNING 04: minimum elevation drop used for Conduit FM-126
  WARNING 04: minimum elevation drop used for Conduit FM-134
  WARNING 04: minimum elevation drop used for Conduit FM-139
  WARNING 04: minimum elevation drop used for Conduit FM-14
  WARNING 04: minimum elevation drop used for Conduit FM-15
  WARNING 04: minimum elevation drop used for Conduit FM-150
  WARNING 04: minimum elevation drop used for Conduit FM-163
  WARNING 04: minimum elevation drop used for Conduit FM-165
  WARNING 04: minimum elevation drop used for Conduit FM-166
  WARNING 04: minimum elevation drop used for Conduit FM-17
  WARNING 04: minimum elevation drop used for Conduit FM-173
  WARNING 04: minimum elevation drop used for Conduit FM-183
  WARNING 04: minimum elevation drop used for Conduit FM-184
  WARNING 04: minimum elevation drop used for Conduit FM-191
  WARNING 04: minimum elevation drop used for Conduit FM-200
  WARNING 04: minimum elevation drop used for Conduit FM-201
  WARNING 04: minimum elevation drop used for Conduit FM-202
  WARNING 04: minimum elevation drop used for Conduit FM-208
  WARNING 04: minimum elevation drop used for Conduit FM-22
  WARNING 04: minimum elevation drop used for Conduit FM-232
  WARNING 04: minimum elevation drop used for Conduit FM-24
  WARNING 04: minimum elevation drop used for Conduit FM-251
  WARNING 04: minimum elevation drop used for Conduit FM-254
  WARNING 04: minimum elevation drop used for Conduit FM-284
  WARNING 04: minimum elevation drop used for Conduit FM-284B
  WARNING 04: minimum elevation drop used for Conduit FM-287
  WARNING 04: minimum elevation drop used for Conduit FM-291
  WARNING 04: minimum elevation drop used for Conduit FM-294
  WARNING 03: negative offset ignored for Link FM-311
  WARNING 04: minimum elevation drop used for Conduit FM-329
  WARNING 04: minimum elevation drop used for Conduit FM-347
  WARNING 04: minimum elevation drop used for Conduit FM-351
  WARNING 04: minimum elevation drop used for Conduit FM-359
  WARNING 04: minimum elevation drop used for Conduit FM-384
  WARNING 04: minimum elevation drop used for Conduit FM-391
  WARNING 04: minimum elevation drop used for Conduit FM-401
  WARNING 04: minimum elevation drop used for Conduit FM-403
  WARNING 04: minimum elevation drop used for Conduit FM-404
  WARNING 04: minimum elevation drop used for Conduit FM-405
  WARNING 04: minimum elevation drop used for Conduit FM-406
  WARNING 04: minimum elevation drop used for Conduit FM-407
  WARNING 04: minimum elevation drop used for Conduit FM-408
  WARNING 04: minimum elevation drop used for Conduit FM-409
  WARNING 04: minimum elevation drop used for Conduit FM-63
  WARNING 04: minimum elevation drop used for Conduit FM-77
  WARNING 04: minimum elevation drop used for Conduit FM-82
  WARNING 04: minimum elevation drop used for Conduit FM-95
  WARNING 04: minimum elevation drop used for Conduit G-6007
  WARNING 02: maximum depth increased for Node J-146
  WARNING 02: maximum depth increased for Node J-94
  
  *********************************************************
  NOTE: The summary statistics displayed in this report are
  based on results found at every computational time step,  
  not just on results from each reporting time step.
  *********************************************************
  
  ****************
  Analysis Options
  ****************
  Flow Units ............... GPM
  Process Models:
    Rainfall/Runoff ........ NO
    RDII ................... NO
    Snowmelt ............... NO
    Groundwater ............ NO
    Flow Routing ........... YES
    Ponding Allowed ........ NO
    Water Quality .......... NO
  Flow Routing Method ...... DYNWAVE
  Surcharge Method ......... EXTRAN
  Starting Date ............ 03/12/2010 00:00:00
  Ending Date .............. 03/13/2010 00:00:00
  Antecedent Dry Days ...... 5.0
  Report Time Step ......... 00:00:05
  Routing Time Step ........ 5.00 sec
  Variable Time Step ....... YES
  Maximum Trials ........... 8
  Number of Threads ........ 8
  Head Tolerance ........... 0.001000 ft
  
  
  **************************        Volume        Volume
  Flow Routing Continuity        acre-feet      10^6 gal
  **************************     ---------     ---------
  Dry Weather Inflow .......         0.000         0.000
  Wet Weather Inflow .......         0.000         0.000
  Groundwater Inflow .......         0.000         0.000
  RDII Inflow ..............         0.000         0.000
  External Inflow ..........         0.000         0.000
  External Outflow .........         0.000         0.000
  Flooding Loss ............         0.000         0.000
  Evaporation Loss .........         0.000         0.000
  Exfiltration Loss ........         0.000         0.000
  Initial Stored Volume ....         0.178         0.058
  Final Stored Volume ......         0.178         0.058
  Continuity Error (%) .....         0.000
  
  
  ***************************
  Time-Step Critical Elements
  ***************************
  None
  
  
  ********************************
  Highest Flow Instability Indexes
  ********************************
  All links are stable.
  
  
  ******************
  Node Depth Summary
  ******************
  
  ---------------------------------------------------------------------------------
                                 Average  Maximum  Maximum  Time of Max    Reported
                                   Depth    Depth      HGL   Occurrence   Max Depth
  Node                 Type         Feet     Feet     Feet  days hr:min        Feet
  ---------------------------------------------------------------------------------
  01-115               JUNCTION  -nan(ind)     0.00    -1.07     0  00:00        0.00
  01-124               JUNCTION  -nan(ind)     0.00    -1.28     0  00:00        0.00
  01-134               JUNCTION  -nan(ind)     0.00     0.21     0  00:00        0.00
  01-135               JUNCTION  -nan(ind)     0.00     0.89     0  00:00        0.00
  01-136               JUNCTION  -nan(ind)     0.00     1.85     0  00:00        0.00
  01-148               JUNCTION  -nan(ind)     0.00     2.74     0  00:00        0.00
  01-151               JUNCTION  -nan(ind)     0.00     2.70     0  00:00        0.00
  01-152               JUNCTION  -nan(ind)     0.00     3.01     0  00:00        0.00
  01-183               JUNCTION  -nan(ind)     0.00     5.68     0  00:00        0.00
  01-187               JUNCTION  -nan(ind)     0.00     4.46     0  00:00        0.00
  01-188               JUNCTION  -nan(ind)     0.00     6.53     0  00:00        0.00
  01-192               JUNCTION  -nan(ind)     0.00     7.37     0  00:00        0.00
  01-196               JUNCTION  -nan(ind)     0.00     8.20     0  00:00        0.00
  01-20                JUNCTION  -nan(ind)     0.00     1.40     0  00:00        0.00
  01-204               JUNCTION  -nan(ind)     0.00     9.05     0  00:00        0.00
  01-206               JUNCTION  -nan(ind)     0.00    10.84     0  00:00        0.00
  01-21                JUNCTION  -nan(ind)     0.00     1.46     0  00:00        0.00
  01-212               JUNCTION  -nan(ind)     0.00     6.86     0  00:00        0.00
  01-226               JUNCTION  -nan(ind)     0.00     3.69     0  00:00        0.00
  01-227               JUNCTION  -nan(ind)     0.00     5.16     0  00:00        0.00
  01-23                JUNCTION  -nan(ind)     0.00     1.76     0  00:00        0.00
  01-231               JUNCTION  -nan(ind)     0.00     6.67     0  00:00        0.00
  01-232               JUNCTION  -nan(ind)     0.00     8.02     0  00:00        0.00
  01-233               JUNCTION  -nan(ind)     0.00     8.79     0  00:00        0.00
  01-24                JUNCTION  -nan(ind)     0.00     2.11     0  00:00        0.00
  01-25                JUNCTION  -nan(ind)     0.00     2.52     0  00:00        0.00
  01-28                JUNCTION  -nan(ind)     0.00     2.95     0  00:00        0.00
  01-38                JUNCTION  -nan(ind)     0.00     3.26     0  00:00        0.00
  01-39                JUNCTION  -nan(ind)     0.00     2.61     0  00:00        0.00
  01-40                JUNCTION  -nan(ind)     0.00     3.38     0  00:00        0.00
  01-41                JUNCTION  -nan(ind)     0.00     3.86     0  00:00        0.00
  01-42                JUNCTION  -nan(ind)     0.00     3.91     0  00:00        0.00
  01-44                JUNCTION  -nan(ind)     0.00     4.46     0  00:00        0.00
  01-45                JUNCTION  -nan(ind)     0.00     6.21     0  00:00        0.00
  01-46                JUNCTION  -nan(ind)     0.00     7.38     0  00:00        0.00
  01-89                JUNCTION  -nan(ind)     0.00     0.77     0  00:00        0.00
  01-90                JUNCTION  -nan(ind)     0.00     0.42     0  00:00        0.00
  01-91                JUNCTION  -nan(ind)     0.00     0.12     0  00:00        0.00
  01-92                JUNCTION  -nan(ind)     0.00    -0.50     0  00:00        0.00
  01-A-40              JUNCTION  -nan(ind)     0.00     7.53     0  00:00        0.00
  01-A6                JUNCTION  -nan(ind)     0.00     6.21     0  00:00        0.00
  04-11                JUNCTION  -nan(ind)     0.00     3.53     0  00:00        0.00
  04-12                JUNCTION  -nan(ind)     0.00     2.14     0  00:00        0.00
  04-13                JUNCTION  -nan(ind)     0.00     1.03     0  00:00        0.00
  04-16                JUNCTION  -nan(ind)     0.00    -4.26     0  00:00        0.00
  04-18                JUNCTION  -nan(ind)     0.00    -4.41     0  00:00        0.00
  04-21                JUNCTION  -nan(ind)     0.00    -3.23     0  00:00        0.00
  04-27                JUNCTION  -nan(ind)     0.00    -1.81     0  00:00        0.00
  04-28                JUNCTION  -nan(ind)     0.00    -0.48     0  00:00        0.00
  05-23                JUNCTION  -nan(ind)     0.00    -7.91     0  00:00        0.00
  05-24                JUNCTION  -nan(ind)     0.00    -7.70     0  00:00        0.00
  05-25                JUNCTION  -nan(ind)     0.00    -7.15     0  00:00        0.00
  05-26                JUNCTION  -nan(ind)     0.00    -5.52     0  00:00        0.00
  05-27                JUNCTION  -nan(ind)     0.00    -5.00     0  00:00        0.00
  05-29                JUNCTION  -nan(ind)     0.00    -3.96     0  00:00        0.00
  05-30                JUNCTION  -nan(ind)     0.00    -3.77     0  00:00        0.00
  05-40                JUNCTION  -nan(ind)     0.00    -8.16     0  00:00        0.00
  06-04                JUNCTION  -nan(ind)     0.00     1.66     0  00:00        0.00
  06-09                JUNCTION  -nan(ind)     0.00    -4.25     0  00:00        0.00
  06-11                JUNCTION  -nan(ind)     0.00    -4.23     0  00:00        0.00
  06-12                JUNCTION  -nan(ind)     0.00    -3.34     0  00:00        0.00
  06-21                JUNCTION  -nan(ind)     0.00    -3.43     0  00:00        0.00
  06-22                JUNCTION  -nan(ind)     0.00    -2.69     0  00:00        0.00
  06-25                JUNCTION  -nan(ind)     0.00    -1.56     0  00:00        0.00
  06-27                JUNCTION  -nan(ind)     0.00    -0.91     0  00:00        0.00
  06-28                JUNCTION  -nan(ind)     0.00     0.17     0  00:00        0.00
  06-29                JUNCTION  -nan(ind)     0.00     1.20     0  00:00        0.00
  06-30                JUNCTION  -nan(ind)     0.00     2.20     0  00:00        0.00
  06-31                JUNCTION  -nan(ind)     0.00     3.06     0  00:00        0.00
  06-52                JUNCTION  -nan(ind)     0.00    -2.45     0  00:00        0.00
  06-53                JUNCTION  -nan(ind)     0.00    -1.04     0  00:00        0.00
  06-54                JUNCTION  -nan(ind)     0.00     0.30     0  00:00        0.00
  06-55                JUNCTION  -nan(ind)     0.00     0.67     0  00:00        0.00
  06-56                JUNCTION  -nan(ind)     0.00     1.95     0  00:00        0.00
  08-01                JUNCTION  -nan(ind)     0.00    -3.14     0  00:00        0.00
  08-02                JUNCTION  -nan(ind)     0.00    -2.78     0  00:00        0.00
  08-09                JUNCTION  -nan(ind)     0.00    -0.77     0  00:00        0.00
  08-13                JUNCTION  -nan(ind)     0.00     0.93     0  00:00        0.00
  08-14                JUNCTION  -nan(ind)     0.00     0.18     0  00:00        0.00
  08-19                JUNCTION  -nan(ind)     0.00     2.48     0  00:00        0.00
  09-01                JUNCTION  -nan(ind)     0.00     0.79     0  00:00        0.00
  09-02                JUNCTION  -nan(ind)     0.00     3.34     0  00:00        0.00
  09-03                JUNCTION  -nan(ind)     0.00     4.45     0  00:00        0.00
  09-04                JUNCTION  -nan(ind)     0.00     5.88     0  00:00        0.00
  09-06                JUNCTION  -nan(ind)     0.00     7.07     0  00:00        0.00
  1000-1               JUNCTION  -nan(ind)     0.00     3.42     0  00:00        0.00
  1000-13              JUNCTION  -nan(ind)     0.00    -1.20     0  00:00        0.00
  1000-14              JUNCTION  -nan(ind)     0.00     1.69     0  00:00        0.00
  1000-15              JUNCTION  -nan(ind)     0.00     3.10     0  00:00        0.00
  1000-16              JUNCTION  -nan(ind)     0.00    -3.90     0  00:00        0.00
  1000-17              JUNCTION  -nan(ind)     0.00    -1.91     0  00:00        0.00
  1000-18              JUNCTION  -nan(ind)     0.00    10.87     0  00:00        0.00
  1000-2               JUNCTION  -nan(ind)     0.00     2.30     0  00:00        0.00
  1000-20              JUNCTION  -nan(ind)     0.00    -6.67     0  00:00        0.00
  1000-23              JUNCTION  -nan(ind)     0.00    -6.18     0  00:00        0.00
  1000-24              JUNCTION  -nan(ind)     0.00     2.19     0  00:00        0.00
  1000-28              JUNCTION  -nan(ind)     0.00     5.14     0  00:00        0.00
  1000-29              JUNCTION  -nan(ind)     0.00    -5.40     0  00:00        0.00
  1000-3               JUNCTION  -nan(ind)     0.00    -6.36     0  00:00        0.00
  1000-4               JUNCTION  -nan(ind)     0.00     4.69     0  00:00        0.00
  1000-5               JUNCTION  -nan(ind)     0.00     4.18     0  00:00        0.00
  1000-6               JUNCTION  -nan(ind)     0.00     6.49     0  00:00        0.00
  1000-7               JUNCTION  -nan(ind)     0.00    -6.90     0  00:00        0.00
  1000-8               JUNCTION  -nan(ind)     0.00    -1.22     0  00:00        0.00
  1000-9               JUNCTION  -nan(ind)     0.00     2.20     0  00:00        0.00
  13-01                JUNCTION  -nan(ind)     0.00    -0.23     0  00:00        0.00
  13-02                JUNCTION  -nan(ind)     0.00     0.71     0  00:00        0.00
  13-04                JUNCTION  -nan(ind)     0.00     1.06     0  00:00        0.00
  13-05                JUNCTION  -nan(ind)     0.00     2.12     0  00:00        0.00
  13-10                JUNCTION  -nan(ind)     0.00     2.91     0  00:00        0.00
  25-01                JUNCTION  -nan(ind)     0.00    -4.71     0  00:00        0.00
  25-02                JUNCTION  -nan(ind)     0.00    -4.46     0  00:00        0.00
  25-03                JUNCTION  -nan(ind)     0.00    -2.64     0  00:00        0.00
  25-06                JUNCTION  -nan(ind)     0.00    -3.83     0  00:00        0.00
  25-07                JUNCTION  -nan(ind)     0.00    -3.25     0  00:00        0.00
  25-08                JUNCTION  -nan(ind)     0.00    -2.64     0  00:00        0.00
  25-09                JUNCTION  -nan(ind)     0.00    -1.91     0  00:00        0.00
  25-10                JUNCTION  -nan(ind)     0.00    -1.45     0  00:00        0.00
  25-11                JUNCTION  -nan(ind)     0.00    -0.89     0  00:00        0.00
  25-12                JUNCTION  -nan(ind)     0.00    -0.46     0  00:00        0.00
  25-13                JUNCTION  -nan(ind)     0.00    -0.23     0  00:00        0.00
  27-34                JUNCTION  -nan(ind)     0.00     0.16     0  00:00        0.00
  27-35                JUNCTION  -nan(ind)     0.00     1.53     0  00:00        0.00
  27-36                JUNCTION  -nan(ind)     0.00     2.99     0  00:00        0.00
  27-37                JUNCTION  -nan(ind)     0.00     3.99     0  00:00        0.00
  27-47                JUNCTION  -nan(ind)     0.00     5.32     0  00:00        0.00
  27-A28               JUNCTION  -nan(ind)     0.00     7.26     0  00:00        0.00
  29-01A               JUNCTION  -nan(ind)     0.00     6.34     0  00:00        0.00
  29-03                JUNCTION  -nan(ind)     0.00     7.61     0  00:00        0.00
  29-08                JUNCTION  -nan(ind)     0.00     8.77     0  00:00        0.00
  29-09                JUNCTION  -nan(ind)     0.00     8.07     0  00:00        0.00
  34-01                JUNCTION  -nan(ind)     0.00    -6.75     0  00:00        0.00
  34-17                JUNCTION  -nan(ind)     0.00     1.90     0  00:00        0.00
  34-20                JUNCTION  -nan(ind)     0.00     3.15     0  00:00        0.00
  34-21                JUNCTION  -nan(ind)     0.00     4.56     0  00:00        0.00
  34-23                JUNCTION  -nan(ind)     0.00     7.02     0  00:00        0.00
  34-26                JUNCTION  -nan(ind)     0.00     7.70     0  00:00        0.00
  34-28                JUNCTION  -nan(ind)     0.00     9.42     0  00:00        0.00
  34-29                JUNCTION  -nan(ind)     0.00    10.01     0  00:00        0.00
  39-01                JUNCTION  -nan(ind)     0.00     1.65     0  00:00        0.00
  39-02                JUNCTION  -nan(ind)     0.00     1.85     0  00:00        0.00
  39-03                JUNCTION  -nan(ind)     0.00     4.16     0  00:00        0.00
  39-04                JUNCTION  -nan(ind)     0.00     5.58     0  00:00        0.00
  39-05                JUNCTION  -nan(ind)     0.00     6.98     0  00:00        0.00
  39-06                JUNCTION  -nan(ind)     0.00     8.45     0  00:00        0.00
  39-07                JUNCTION  -nan(ind)     0.00     9.84     0  00:00        0.00
  39-08                JUNCTION  -nan(ind)     0.00    11.24     0  00:00        0.00
  39-09                JUNCTION  -nan(ind)     0.00     3.51     0  00:00        0.00
  39-10                JUNCTION  -nan(ind)     0.00     4.28     0  00:00        0.00
  39-11                JUNCTION  -nan(ind)     0.00     5.03     0  00:00        0.00
  39-12                JUNCTION  -nan(ind)     0.00     5.69     0  00:00        0.00
  39-14                JUNCTION  -nan(ind)     0.00     6.23     0  00:00        0.00
  39-26                JUNCTION  -nan(ind)     0.00     7.11     0  00:00        0.00
  39-27                JUNCTION  -nan(ind)     0.00     7.66     0  00:00        0.00
  39-28                JUNCTION  -nan(ind)     0.00     8.47     0  00:00        0.00
  39-29                JUNCTION  -nan(ind)     0.00     9.17     0  00:00        0.00
  39-31                JUNCTION  -nan(ind)     0.00    10.21     0  00:00        0.00
  44-A34               JUNCTION  -nan(ind)     0.00    10.55     0  00:00        0.00
  57-01                JUNCTION  -nan(ind)     0.00     6.14     0  00:00        0.00
  57-01A               JUNCTION  -nan(ind)     0.00     5.19     0  00:00        0.00
  57-02                JUNCTION  -nan(ind)     0.00     7.23     0  00:00        0.00
  65-01                JUNCTION  -nan(ind)     0.00    -5.64     0  00:00        0.00
  65-28                JUNCTION  -nan(ind)     0.00    -4.75     0  00:00        0.00
  65-29                JUNCTION  -nan(ind)     0.00    -3.97     0  00:00        0.00
  65-30                JUNCTION  -nan(ind)     0.00    -2.73     0  00:00        0.00
  65-31                JUNCTION  -nan(ind)     0.00    -1.96     0  00:00        0.00
  65-32                JUNCTION  -nan(ind)     0.00    -0.93     0  00:00        0.00
  65-33                JUNCTION  -nan(ind)     0.00     4.30     0  00:00        0.00
  65-34                JUNCTION  -nan(ind)     0.00     5.37     0  00:00        0.00
  68-01                JUNCTION  -nan(ind)     0.00     3.03     0  00:00        0.00
  68-A                 JUNCTION  -nan(ind)     0.00     6.01     0  00:00        0.00
  68-B                 JUNCTION  -nan(ind)     0.00     9.51     0  00:00        0.00
  68-C                 JUNCTION  -nan(ind)     0.00     8.50     0  00:00        0.00
  68-D                 JUNCTION  -nan(ind)     0.00     7.22     0  00:00        0.00
  69-01                JUNCTION  -nan(ind)     0.00    -4.42     0  00:00        0.00
  77-01                JUNCTION  -nan(ind)     0.00     1.32     0  00:00        0.00
  FM-0B                JUNCTION  -nan(ind)     0.00     5.75     0  00:00        0.00
  J-1                  JUNCTION  -nan(ind)     0.00     6.00     0  00:00        0.00
  J-100                JUNCTION  -nan(ind)     0.00     0.00     0  00:00        0.00
  J-101                JUNCTION  -nan(ind)     0.00     5.76     0  00:00        0.00
  J-103                JUNCTION  -nan(ind)     0.00     5.00     0  00:00        0.00
  J-104                JUNCTION  -nan(ind)     0.00     4.00     0  00:00        0.00
  J-105                JUNCTION  -nan(ind)     0.00     2.00     0  00:00        0.00
  J-106                JUNCTION  -nan(ind)     0.00     8.00     0  00:00        0.00
  J-108                JUNCTION  -nan(ind)     0.00    10.00     0  00:00        0.00
  J-110                JUNCTION  -nan(ind)     0.00     6.00     0  00:00        0.00
  J-111                JUNCTION  -nan(ind)     0.00    10.00     0  00:00        0.00
  J-112                JUNCTION  -nan(ind)     0.00     4.00     0  00:00        0.00
  J-113                JUNCTION  -nan(ind)     0.00     7.00     0  00:00        0.00
  J-114                JUNCTION  -nan(ind)     0.00     2.00     0  00:00        0.00
  J-115                JUNCTION  -nan(ind)     0.00    10.00     0  00:00        0.00
  J-116                JUNCTION  -nan(ind)     0.00    10.00     0  00:00        0.00
  J-117                JUNCTION  -nan(ind)     0.00    10.00     0  00:00        0.00
  J-118                JUNCTION  -nan(ind)     0.00    10.00     0  00:00        0.00
  J-119                JUNCTION  -nan(ind)     0.00    10.00     0  00:00        0.00
  J-12                 JUNCTION  -nan(ind)     0.00    12.00     0  00:00        0.00
  J-120                JUNCTION  -nan(ind)     0.00     8.00     0  00:00        0.00
  J-121                JUNCTION  -nan(ind)     0.00     8.00     0  00:00        0.00
  J-123                JUNCTION  -nan(ind)     0.00     8.00     0  00:00        0.00
  J-124                JUNCTION  -nan(ind)     0.00     6.00     0  00:00        0.00
  J-125                JUNCTION  -nan(ind)     0.00     6.00     0  00:00        0.00
  J-126                JUNCTION  -nan(ind)     0.00     4.00     0  00:00        0.00
  J-127                JUNCTION  -nan(ind)     0.00     8.00     0  00:00        0.00
  J-128                JUNCTION  -nan(ind)     0.00     2.00     0  00:00        0.00
  J-129                JUNCTION  -nan(ind)     0.00    10.00     0  00:00        0.00
  J-131                JUNCTION  -nan(ind)     0.00     0.00     0  00:00        0.00
  J-132                JUNCTION  -nan(ind)     0.00     2.00     0  00:00        0.00
  J-133                JUNCTION  -nan(ind)     0.00    12.00     0  00:00        0.00
  J-134                JUNCTION  -nan(ind)     0.00    12.00     0  00:00        0.00
  J-135                JUNCTION  -nan(ind)     0.00    10.00     0  00:00        0.00
  J-136                JUNCTION  -nan(ind)     0.00    10.00     0  00:00        0.00
  J-137                JUNCTION  -nan(ind)     0.00    10.00     0  00:00        0.00
  J-138                JUNCTION  -nan(ind)     0.00    10.00     0  00:00        0.00
  J-139                JUNCTION  -nan(ind)     0.00    12.00     0  00:00        0.00
  J-14                 JUNCTION  -nan(ind)     0.00    10.00     0  00:00        0.00
  J-140                JUNCTION  -nan(ind)     0.00    12.00     0  00:00        0.00
  J-142                JUNCTION  -nan(ind)     0.00    12.00     0  00:00        0.00
  J-143                JUNCTION  -nan(ind)     0.00    10.00     0  00:00        0.00
  J-144                JUNCTION  -nan(ind)     0.00    10.00     0  00:00        0.00
  J-145                JUNCTION  -nan(ind)     0.00    10.00     0  00:00        0.00
  J-146                JUNCTION  -nan(ind)     0.00    12.00     0  00:00        0.00
  J-147                JUNCTION  -nan(ind)     0.00    12.00     0  00:00        0.00
  J-148                JUNCTION  -nan(ind)     0.00    12.00     0  00:00        0.00
  J-149                JUNCTION  -nan(ind)     0.00    12.00     0  00:00        0.00
  J-150                JUNCTION  -nan(ind)     0.00    14.00     0  00:00        0.00
  J-151                JUNCTION  -nan(ind)     0.00    14.00     0  00:00        0.00
  J-152                JUNCTION  -nan(ind)     0.00    12.00     0  00:00        0.00
  J-153                JUNCTION  -nan(ind)     0.00    12.00     0  00:00        0.00
  J-154                JUNCTION  -nan(ind)     0.00    12.00     0  00:00        0.00
  J-155                JUNCTION  -nan(ind)     0.00    14.00     0  00:00        0.00
  J-156                JUNCTION  -nan(ind)     0.00    14.00     0  00:00        0.00
  J-157                JUNCTION  -nan(ind)     0.00    12.00     0  00:00        0.00
  J-158                JUNCTION  -nan(ind)     0.00    12.00     0  00:00        0.00
  J-159                JUNCTION  -nan(ind)     0.00     0.00     0  00:00        0.00
  J-160                JUNCTION  -nan(ind)     0.00     0.00     0  00:00        0.00
  J-17                 JUNCTION  -nan(ind)     0.00     4.00     0  00:00        0.00
  J-19                 JUNCTION  -nan(ind)     0.00     8.00     0  00:00        0.00
  J-2                  JUNCTION  -nan(ind)     0.00     8.00     0  00:00        0.00
  J-20                 JUNCTION  -nan(ind)     0.00     5.00     0  00:00        0.00
  J-22                 JUNCTION  -nan(ind)     0.00    10.00     0  00:00        0.00
  J-23                 JUNCTION  -nan(ind)     0.00    10.00     0  00:00        0.00
  J-24                 JUNCTION  -nan(ind)     0.00     6.00     0  00:00        0.00
  J-25                 JUNCTION  -nan(ind)     0.00     6.00     0  00:00        0.00
  J-26                 JUNCTION  -nan(ind)     0.00    10.00     0  00:00        0.00
  J-28                 JUNCTION  -nan(ind)     0.00     4.00     0  00:00        0.00
  J-29                 JUNCTION  -nan(ind)     0.00    10.00     0  00:00        0.00
  J-3                  JUNCTION  -nan(ind)     0.00     6.00     0  00:00        0.00
  J-30                 JUNCTION  -nan(ind)     0.00    11.00     0  00:00        0.00
  J-31                 JUNCTION  -nan(ind)     0.00    12.00     0  00:00        0.00
  J-32                 JUNCTION  -nan(ind)     0.00    10.00     0  00:00        0.00
  J-33                 JUNCTION  -nan(ind)     0.00     6.00     0  00:00        0.00
  J-34                 JUNCTION  -nan(ind)     0.00    10.00     0  00:00        0.00
  J-35                 JUNCTION  -nan(ind)     0.00    10.00     0  00:00        0.00
  J-36                 JUNCTION  -nan(ind)     0.00    10.00     0  00:00        0.00
  J-37                 JUNCTION  -nan(ind)     0.00    10.00     0  00:00        0.00
  J-38                 JUNCTION  -nan(ind)     0.00     6.00     0  00:00        0.00
  J-39                 JUNCTION  -nan(ind)     0.00     8.00     0  00:00        0.00
  J-4                  JUNCTION  -nan(ind)     0.00     6.00     0  00:00        0.00
  J-40                 JUNCTION  -nan(ind)     0.00    12.00     0  00:00        0.00
  J-41                 JUNCTION  -nan(ind)     0.00    12.00     0  00:00        0.00
  J-43                 JUNCTION  -nan(ind)     0.00     2.00     0  00:00        0.00
  J-46                 JUNCTION  -nan(ind)     0.00     6.00     0  00:00        0.00
  J-47                 JUNCTION  -nan(ind)     0.00     6.00     0  00:00        0.00
  J-48                 JUNCTION  -nan(ind)     0.00    12.00     0  00:00        0.00
  J-49                 JUNCTION  -nan(ind)     0.00    12.00     0  00:00        0.00
  J-5                  JUNCTION  -nan(ind)     0.00    12.00     0  00:00        0.00
  J-50                 JUNCTION  -nan(ind)     0.00    11.00     0  00:00        0.00
  J-51                 JUNCTION  -nan(ind)     0.00    12.00     0  00:00        0.00
  J-52                 JUNCTION  -nan(ind)     0.00     6.00     0  00:00        0.00
  J-53                 JUNCTION  -nan(ind)     0.00    10.00     0  00:00        0.00
  J-54                 JUNCTION  -nan(ind)     0.00    10.00     0  00:00        0.00
  J-56                 JUNCTION  -nan(ind)     0.00    12.00     0  00:00        0.00
  J-58                 JUNCTION  -nan(ind)     0.00    12.00     0  00:00        0.00
  J-59                 JUNCTION  -nan(ind)     0.00    10.00     0  00:00        0.00
  J-6                  JUNCTION  -nan(ind)     0.00    11.00     0  00:00        0.00
  J-60                 JUNCTION  -nan(ind)     0.00     6.00     0  00:00        0.00
  J-61                 JUNCTION  -nan(ind)     0.00     4.00     0  00:00        0.00
  J-62                 JUNCTION  -nan(ind)     0.00    12.00     0  00:00        0.00
  J-64                 JUNCTION  -nan(ind)     0.00    12.00     0  00:00        0.00
  J-66                 JUNCTION  -nan(ind)     0.00    12.00     0  00:00        0.00
  J-67                 JUNCTION  -nan(ind)     0.00    12.00     0  00:00        0.00
  J-69                 JUNCTION  -nan(ind)     0.00    10.00     0  00:00        0.00
  J-70                 JUNCTION  -nan(ind)     0.00     8.00     0  00:00        0.00
  J-71                 JUNCTION  -nan(ind)     0.00    12.00     0  00:00        0.00
  J-73                 JUNCTION  -nan(ind)     0.00     4.00     0  00:00        0.00
  J-75                 JUNCTION  -nan(ind)     0.00     4.00     0  00:00        0.00
  J-76                 JUNCTION  -nan(ind)     0.00    12.00     0  00:00        0.00
  J-77                 JUNCTION  -nan(ind)     0.00    10.00     0  00:00        0.00
  J-78                 JUNCTION  -nan(ind)     0.00    10.00     0  00:00        0.00
  J-79                 JUNCTION  -nan(ind)     0.00    10.00     0  00:00        0.00
  J-8                  JUNCTION  -nan(ind)     0.00    10.00     0  00:00        0.00
  J-80                 JUNCTION  -nan(ind)     0.00    12.00     0  00:00        0.00
  J-81                 JUNCTION  -nan(ind)     0.00     6.00     0  00:00        0.00
  J-82                 JUNCTION  -nan(ind)     0.00    12.00     0  00:00        0.00
  J-83                 JUNCTION  -nan(ind)     0.00    10.00     0  00:00        0.00
  J-84                 JUNCTION  -nan(ind)     0.00     2.00     0  00:00        0.00
  J-85                 JUNCTION  -nan(ind)     0.00    12.00     0  00:00        0.00
  J-86                 JUNCTION  -nan(ind)     0.00    12.00     0  00:00        0.00
  J-87                 JUNCTION  -nan(ind)     0.00     6.00     0  00:00        0.00
  J-88                 JUNCTION  -nan(ind)     0.00    10.00     0  00:00        0.00
  J-89                 JUNCTION  -nan(ind)     0.00     8.00     0  00:00        0.00
  J-9                  JUNCTION  -nan(ind)     0.00    10.00     0  00:00        0.00
  J-90                 JUNCTION  -nan(ind)     0.00     8.00     0  00:00        0.00
  J-91                 JUNCTION  -nan(ind)     0.00     4.00     0  00:00        0.00
  J-92                 JUNCTION  -nan(ind)     0.00     2.00     0  00:00        0.00
  J-93                 JUNCTION  -nan(ind)     0.00     0.00     0  00:00        0.00
  J-94                 JUNCTION  -nan(ind)     0.00    -7.29     0  00:00        0.00
  J-95                 JUNCTION  -nan(ind)     0.00     2.00     0  00:00        0.00
  J-96                 JUNCTION  -nan(ind)     0.00    10.00     0  00:00        0.00
  J-97                 JUNCTION  -nan(ind)     0.00    10.00     0  00:00        0.00
  J-98                 JUNCTION  -nan(ind)     0.00    10.00     0  00:00        0.00
  J-99                 JUNCTION  -nan(ind)     0.00     6.00     0  00:00        0.00
  JCT-122              JUNCTION  -nan(ind)     0.00    -8.66     0  00:00        0.00
  JCT-124              JUNCTION  -nan(ind)     0.00    -8.66     0  00:00        0.00
  JCT-126              JUNCTION  -nan(ind)     0.00    -5.41     0  00:00        0.00
  JCT-128              JUNCTION  -nan(ind)     0.00    -5.41     0  00:00        0.00
  JCT-130              JUNCTION  -nan(ind)     0.00    -1.59     0  00:00        0.00
  JCT-132              JUNCTION  -nan(ind)     0.00    -1.59     0  00:00        0.00
  JCT-134              JUNCTION  -nan(ind)     0.00    -1.00     0  00:00        0.00
  JCT-138              JUNCTION  -nan(ind)     0.00    -1.00     0  00:00        0.00
  JCT-140              JUNCTION  -nan(ind)     0.00    -7.17     0  00:00        0.00
  JCT-142              JUNCTION  -nan(ind)     0.00    -7.17     0  00:00        0.00
  JCT-144              JUNCTION  -nan(ind)     0.00    -7.77     0  00:00        0.00
  JCT-148              JUNCTION  -nan(ind)     0.00    -7.77     0  00:00        0.00
  JCT-150              JUNCTION  -nan(ind)     0.00    -9.19     0  00:00        0.00
  JCT-152              JUNCTION  -nan(ind)     0.00    -9.19     0  00:00        0.00
  JCT-154              JUNCTION  -nan(ind)     0.00    -9.00     0  00:00        0.00
  JCT-156              JUNCTION  -nan(ind)     0.00    -9.00     0  00:00        0.00
  JCT-162              JUNCTION  -nan(ind)     0.00   -12.44     0  00:00        0.00
  JCT-164              JUNCTION  -nan(ind)     0.00   -12.44     0  00:00        0.00
  JCT-166              JUNCTION  -nan(ind)     0.00   -14.50     0  00:00        0.00
  JCT-168              JUNCTION  -nan(ind)     0.00   -14.50     0  00:00        0.00
  JCT-170              JUNCTION  -nan(ind)     0.00     1.99     0  00:00        0.00
  JCT-172              JUNCTION  -nan(ind)     0.00     1.99     0  00:00        0.00
  JCT-176              JUNCTION  -nan(ind)     0.00    -8.22     0  00:00        0.00
  JCT-178              JUNCTION  -nan(ind)     0.00    -8.22     0  00:00        0.00
  JCT-180              JUNCTION  -nan(ind)     0.00     0.34     0  00:00        0.00
  JCT-182              JUNCTION  -nan(ind)     0.00     0.34     0  00:00        0.00
  JCT-184              JUNCTION  -nan(ind)     0.00    -8.92     0  00:00        0.00
  JCT-186              JUNCTION  -nan(ind)     0.00    -8.92     0  00:00        0.00
  JCT-188              JUNCTION  -nan(ind)     0.00    -3.17     0  00:00        0.00
  JCT-190              JUNCTION  -nan(ind)     0.00    -3.17     0  00:00        0.00
  JCT-192              JUNCTION  -nan(ind)     0.00    -5.93     0  00:00        0.00
  JCT-194              JUNCTION  -nan(ind)     0.00    -5.93     0  00:00        0.00
  JCT-196              JUNCTION  -nan(ind)     0.00    -5.92     0  00:00        0.00
  JCT-198              JUNCTION  -nan(ind)     0.00    -5.92     0  00:00        0.00
  JCT-200              JUNCTION  -nan(ind)     0.00    -6.50     0  00:00        0.00
  JCT-202              JUNCTION  -nan(ind)     0.00    -6.50     0  00:00        0.00
  JCT-204              JUNCTION  -nan(ind)     0.00     1.22     0  00:00        0.00
  JCT-206              JUNCTION  -nan(ind)     0.00     1.22     0  00:00        0.00
  JCT-208              JUNCTION  -nan(ind)     0.00    -1.87     0  00:00        0.00
  JCT-210              JUNCTION  -nan(ind)     0.00    -1.87     0  00:00        0.00
  JCT-212              JUNCTION  -nan(ind)     0.00    -3.00     0  00:00        0.00
  JCT-214              JUNCTION  -nan(ind)     0.00    -3.00     0  00:00        0.00
  JCT-216              JUNCTION  -nan(ind)     0.00    -2.22     0  00:00        0.00
  JCT-218              JUNCTION  -nan(ind)     0.00    -2.22     0  00:00        0.00
  JCT-222              JUNCTION  -nan(ind)     0.00    -8.15     0  00:00        0.00
  JCT-224              JUNCTION  -nan(ind)     0.00    -8.15     0  00:00        0.00
  JCT-226              JUNCTION  -nan(ind)     0.00    -3.01     0  00:00        0.00
  JCT-228              JUNCTION  -nan(ind)     0.00    -3.01     0  00:00        0.00
  JCT-230              JUNCTION  -nan(ind)     0.00    -3.26     0  00:00        0.00
  JCT-232              JUNCTION  -nan(ind)     0.00    -3.26     0  00:00        0.00
  JCT-234              JUNCTION  -nan(ind)     0.00    -3.62     0  00:00        0.00
  JCT-236              JUNCTION  -nan(ind)     0.00    -3.62     0  00:00        0.00
  JCT-238              JUNCTION  -nan(ind)     0.00    -0.27     0  00:00        0.00
  JCT-240              JUNCTION  -nan(ind)     0.00    -0.27     0  00:00        0.00
  JCT-242              JUNCTION  -nan(ind)     0.00     1.87     0  00:00        0.00
  JCT-244              JUNCTION  -nan(ind)     0.00     1.87     0  00:00        0.00
  JCT-246              JUNCTION  -nan(ind)     0.00    -2.01     0  00:00        0.00
  JCT-248              JUNCTION  -nan(ind)     0.00    -2.01     0  00:00        0.00
  JCT-250              JUNCTION  -nan(ind)     0.00    -3.43     0  00:00        0.00
  JCT-252              JUNCTION  -nan(ind)     0.00    -3.43     0  00:00        0.00
  JCT-254              JUNCTION  -nan(ind)     0.00    -4.50     0  00:00        0.00
  JCT-256              JUNCTION  -nan(ind)     0.00    -4.50     0  00:00        0.00
  JCT-258              JUNCTION  -nan(ind)     0.00    -4.50     0  00:00        0.00
  JCT-260              JUNCTION  -nan(ind)     0.00    -8.24     0  00:00        0.00
  JCT-262              JUNCTION  -nan(ind)     0.00    -8.24     0  00:00        0.00
  JCT-264              JUNCTION  -nan(ind)     0.00    -3.02     0  00:00        0.00
  JCT-266              JUNCTION  -nan(ind)     0.00    -3.02     0  00:00        0.00
  JCT-268              JUNCTION  -nan(ind)     0.00    -5.92     0  00:00        0.00
  JCT-270              JUNCTION  -nan(ind)     0.00    -5.92     0  00:00        0.00
  JCT-272              JUNCTION  -nan(ind)     0.00    -5.58     0  00:00        0.00
  JCT-274              JUNCTION  -nan(ind)     0.00    -5.58     0  00:00        0.00
  JCT-276              JUNCTION  -nan(ind)     0.00     0.52     0  00:00        0.00
  JCT-280              JUNCTION  -nan(ind)     0.00     0.52     0  00:00        0.00
  JCT-282              JUNCTION  -nan(ind)     0.00    -1.00     0  00:00        0.00
  JCT-284              JUNCTION  -nan(ind)     0.00    -1.00     0  00:00        0.00
  JCT-286              JUNCTION  -nan(ind)     0.00   -10.03     0  00:00        0.00
  JCT-288              JUNCTION  -nan(ind)     0.00   -10.03     0  00:00        0.00
  JCT-290              JUNCTION  -nan(ind)     0.00    -0.19     0  00:00        0.00
  JCT-292              JUNCTION  -nan(ind)     0.00    -0.19     0  00:00        0.00
  JCT-294              JUNCTION  -nan(ind)     0.00     0.01     0  00:00        0.00
  JCT-296              JUNCTION  -nan(ind)     0.00     0.01     0  00:00        0.00
  JCT-298              JUNCTION  -nan(ind)     0.00     0.22     0  00:00        0.00
  JCT-300              JUNCTION  -nan(ind)     0.00     0.22     0  00:00        0.00
  JCT-302              JUNCTION  -nan(ind)     0.00    -4.77     0  00:00        0.00
  JCT-304              JUNCTION  -nan(ind)     0.00    -4.77     0  00:00        0.00
  JCT-306              JUNCTION  -nan(ind)     0.00    -0.56     0  00:00        0.00
  JCT-308              JUNCTION  -nan(ind)     0.00    -0.56     0  00:00        0.00
  JCT-312              JUNCTION  -nan(ind)     0.00    -1.27     0  00:00        0.00
  JCT-314              JUNCTION  -nan(ind)     0.00    -1.27     0  00:00        0.00
  JCT-316              JUNCTION  -nan(ind)     0.00     0.67     0  00:00        0.00
  JCT-318              JUNCTION  -nan(ind)     0.00     0.67     0  00:00        0.00
  JCT-322              JUNCTION  -nan(ind)     0.00    -5.92     0  00:00        0.00
  JCT-324              JUNCTION  -nan(ind)     0.00    -5.92     0  00:00        0.00
  JCT-326              JUNCTION  -nan(ind)     0.00   -12.12     0  00:00        0.00
  JCT-328              JUNCTION  -nan(ind)     0.00   -12.12     0  00:00        0.00
  JCT-330              JUNCTION  -nan(ind)     0.00    -2.84     0  00:00        0.00
  JCT-332              JUNCTION  -nan(ind)     0.00    -2.84     0  00:00        0.00
  JCT-334              JUNCTION  -nan(ind)     0.00    -4.98     0  00:00        0.00
  JCT-336              JUNCTION  -nan(ind)     0.00    -4.98     0  00:00        0.00
  JCT-338              JUNCTION  -nan(ind)     0.00   -10.09     0  00:00        0.00
  JCT-340              JUNCTION  -nan(ind)     0.00   -10.09     0  00:00        0.00
  JCT-342              JUNCTION  -nan(ind)     0.00    -5.00     0  00:00        0.00
  JCT-344              JUNCTION  -nan(ind)     0.00    -5.00     0  00:00        0.00
  JCT-346              JUNCTION  -nan(ind)     0.00    -5.26     0  00:00        0.00
  JCT-348              JUNCTION  -nan(ind)     0.00    -5.26     0  00:00        0.00
  JCT-350              JUNCTION  -nan(ind)     0.00    -1.46     0  00:00        0.00
  JCT-352              JUNCTION  -nan(ind)     0.00    -1.46     0  00:00        0.00
  JCT-354              JUNCTION  -nan(ind)     0.00    -7.18     0  00:00        0.00
  JCT-356              JUNCTION  -nan(ind)     0.00    -7.18     0  00:00        0.00
  JCT-358              JUNCTION  -nan(ind)     0.00    -2.84     0  00:00        0.00
  JCT-360              JUNCTION  -nan(ind)     0.00    -2.84     0  00:00        0.00
  JCT-362              JUNCTION  -nan(ind)     0.00    -5.30     0  00:00        0.00
  JCT-364              JUNCTION  -nan(ind)     0.00    -5.30     0  00:00        0.00
  JCT-366              JUNCTION  -nan(ind)     0.00    -9.00     0  00:00        0.00
  JCT-370              JUNCTION  -nan(ind)     0.00    -9.00     0  00:00        0.00
  JCT-372              JUNCTION  -nan(ind)     0.00    -7.84     0  00:00        0.00
  JCT-374              JUNCTION  -nan(ind)     0.00    -7.84     0  00:00        0.00
  JCT-376              JUNCTION  -nan(ind)     0.00    -4.35     0  00:00        0.00
  JCT-380              JUNCTION  -nan(ind)     0.00    -4.35     0  00:00        0.00
  JCT-382              JUNCTION  -nan(ind)     0.00    -5.14     0  00:00        0.00
  JCT-384              JUNCTION  -nan(ind)     0.00    -5.14     0  00:00        0.00
  JCT-386              JUNCTION  -nan(ind)     0.00    -3.81     0  00:00        0.00
  JCT-388              JUNCTION  -nan(ind)     0.00    -3.81     0  00:00        0.00
  JCT-390              JUNCTION  -nan(ind)     0.00    -6.23     0  00:00        0.00
  JCT-392              JUNCTION  -nan(ind)     0.00    -6.23     0  00:00        0.00
  JCT-394              JUNCTION  -nan(ind)     0.00    -6.89     0  00:00        0.00
  JCT-396              JUNCTION  -nan(ind)     0.00    -6.89     0  00:00        0.00
  JCT-398              JUNCTION  -nan(ind)     0.00    -9.72     0  00:00        0.00
  JCT-402              JUNCTION  -nan(ind)     0.00    -9.72     0  00:00        0.00
  JCT-404              JUNCTION  -nan(ind)     0.00    -9.72     0  00:00        0.00
  JCT-406              JUNCTION  -nan(ind)     0.00    -6.63     0  00:00        0.00
  JCT-408              JUNCTION  -nan(ind)     0.00    -6.63     0  00:00        0.00
  JCT-410              JUNCTION  -nan(ind)     0.00    -6.50     0  00:00        0.00
  JCT-412              JUNCTION  -nan(ind)     0.00    -6.50     0  00:00        0.00
  JCT-414              JUNCTION  -nan(ind)     0.00    -1.80     0  00:00        0.00
  JCT-416              JUNCTION  -nan(ind)     0.00    -1.80     0  00:00        0.00
  JCT-418              JUNCTION  -nan(ind)     0.00   -10.58     0  00:00        0.00
  JCT-420              JUNCTION  -nan(ind)     0.00   -10.58     0  00:00        0.00
  JCT-422              JUNCTION  -nan(ind)     0.00   -15.55     0  00:00        0.00
  JCT-424              JUNCTION  -nan(ind)     0.00   -15.55     0  00:00        0.00
  JCT-426              JUNCTION  -nan(ind)     0.00    -8.50     0  00:00        0.00
  JCT-428              JUNCTION  -nan(ind)     0.00    -8.50     0  00:00        0.00
  JCT-430              JUNCTION  -nan(ind)     0.00    -7.50     0  00:00        0.00
  JCT-432              JUNCTION  -nan(ind)     0.00    -7.50     0  00:00        0.00
  JCT-434              JUNCTION  -nan(ind)     0.00    -3.00     0  00:00        0.00
  JCT-436              JUNCTION  -nan(ind)     0.00    -3.00     0  00:00        0.00
  JCT-438              JUNCTION  -nan(ind)     0.00    -5.49     0  00:00        0.00
  JCT-440              JUNCTION  -nan(ind)     0.00    -5.49     0  00:00        0.00
  JCT-442              JUNCTION  -nan(ind)     0.00    -4.29     0  00:00        0.00
  JCT-444              JUNCTION  -nan(ind)     0.00    -4.29     0  00:00        0.00
  JCT-446              JUNCTION  -nan(ind)     0.00    -5.13     0  00:00        0.00
  JCT-448              JUNCTION  -nan(ind)     0.00    -5.13     0  00:00        0.00
  JCT-450              JUNCTION  -nan(ind)     0.00   -13.05     0  00:00        0.00
  JCT-452              JUNCTION  -nan(ind)     0.00   -13.05     0  00:00        0.00
  JCT-454              JUNCTION  -nan(ind)     0.00    -6.32     0  00:00        0.00
  JCT-456              JUNCTION  -nan(ind)     0.00    -6.32     0  00:00        0.00
  JCT-458              JUNCTION  -nan(ind)     0.00     0.61     0  00:00        0.00
  JCT-460              JUNCTION  -nan(ind)     0.00     0.61     0  00:00        0.00
  JCT-462              JUNCTION  -nan(ind)     0.00    -6.50     0  00:00        0.00
  JCT-464              JUNCTION  -nan(ind)     0.00    -6.50     0  00:00        0.00
  JCT-466              JUNCTION  -nan(ind)     0.00    10.37     0  00:00        0.00
  JCT-468              JUNCTION  -nan(ind)     0.00    10.37     0  00:00        0.00
  JCT-470              JUNCTION  -nan(ind)     0.00    -0.70     0  00:00        0.00
  JCT-472              JUNCTION  -nan(ind)     0.00    -0.70     0  00:00        0.00
  JCT-474              JUNCTION  -nan(ind)     0.00    -5.91     0  00:00        0.00
  JCT-476              JUNCTION  -nan(ind)     0.00    -5.91     0  00:00        0.00
  JCT-478              JUNCTION  -nan(ind)     0.00    -7.85     0  00:00        0.00
  JCT-482              JUNCTION  -nan(ind)     0.00    -7.85     0  00:00        0.00
  JCT-484              JUNCTION  -nan(ind)     0.00    10.00     0  00:00        0.00
  JCT-576              JUNCTION  -nan(ind)     0.00    12.50     0  00:00        0.00
  JCT-578              JUNCTION  -nan(ind)     0.00     7.00     0  00:00        0.00
  JCT-580              JUNCTION  -nan(ind)     0.00     8.00     0  00:00        0.00
  JCT-582              JUNCTION  -nan(ind)     0.00    13.00     0  00:00        0.00
  JCT-584              JUNCTION  -nan(ind)     0.00    12.50     0  00:00        0.00
  JCT-586              JUNCTION  -nan(ind)     0.00    12.75     0  00:00        0.00
  JCT-588              JUNCTION  -nan(ind)     0.00    13.00     0  00:00        0.00
  JCT-590              JUNCTION  -nan(ind)     0.00    12.50     0  00:00        0.00
  JCT-592              JUNCTION  -nan(ind)     0.00    11.75     0  00:00        0.00
  JCT-594              JUNCTION  -nan(ind)     0.00     7.75     0  00:00        0.00
  JCT-596              JUNCTION  -nan(ind)     0.00     3.75     0  00:00        0.00
  JCT-598              JUNCTION  -nan(ind)     0.00    14.00     0  00:00        0.00
  JCT-600              JUNCTION  -nan(ind)     0.00     3.75     0  00:00        0.00
  JCT-602              JUNCTION  -nan(ind)     0.00     7.25     0  00:00        0.00
  JCT-604              JUNCTION  -nan(ind)     0.00     7.25     0  00:00        0.00
  JCT-606              JUNCTION  -nan(ind)     0.00     7.50     0  00:00        0.00
  JCT-608              JUNCTION  -nan(ind)     0.00    11.75     0  00:00        0.00
  JCT-610              JUNCTION  -nan(ind)     0.00     5.00     0  00:00        0.00
  JCT-612              JUNCTION  -nan(ind)     0.00    13.00     0  00:00        0.00
  JCT-614              JUNCTION  -nan(ind)     0.00     8.75     0  00:00        0.00
  JCT-616              JUNCTION  -nan(ind)     0.00    12.00     0  00:00        0.00
  JCT-618              JUNCTION  -nan(ind)     0.00     8.75     0  00:00        0.00
  JCT-620              JUNCTION  -nan(ind)     0.00    13.00     0  00:00        0.00
  JCT-622              JUNCTION  -nan(ind)     0.00     6.75     0  00:00        0.00
  JCT-624              JUNCTION  -nan(ind)     0.00    13.75     0  00:00        0.00
  JCT-626              JUNCTION  -nan(ind)     0.00    12.75     0  00:00        0.00
  OFALL-10             OUTFALL   -nan(ind)     0.00    15.00     0  00:00        0.00
  LS-00                STORAGE   -nan(ind)     0.00    -0.70     0  00:00        0.00
  LS-01                STORAGE   -nan(ind)     0.00    -6.50     0  00:00        0.00
  LS-02                STORAGE   -nan(ind)     0.00    -6.50     0  00:00        0.00
  LS-03                STORAGE   -nan(ind)     0.00    -7.50     0  00:00        0.00
  LS-04                STORAGE   -nan(ind)     0.00    -8.50     0  00:00        0.00
  LS-05                STORAGE   -nan(ind)     0.00   -10.58     0  00:00        0.00
  LS-06                STORAGE   -nan(ind)     0.00   -13.05     0  00:00        0.00
  LS-07                STORAGE   -nan(ind)     0.00    -9.72     0  00:00        0.00
  LS-08                STORAGE   -nan(ind)     0.00    -5.92     0  00:00        0.00
  LS-09                STORAGE   -nan(ind)     0.00    -6.23     0  00:00        0.00
  LS-10                STORAGE   -nan(ind)     0.00    -5.58     0  00:00        0.00
  LS-1002              STORAGE   -nan(ind)     0.00    10.37     0  00:00        0.00
  LS-1004              STORAGE   -nan(ind)     0.00    -1.00     0  00:00        0.00
  LS-11                STORAGE   -nan(ind)     0.00    -5.14     0  00:00        0.00
  LS-12                STORAGE   -nan(ind)     0.00    -5.00     0  00:00        0.00
  LS-13                STORAGE   -nan(ind)     0.00    -5.30     0  00:00        0.00
  LS-14                STORAGE   -nan(ind)     0.00    -2.84     0  00:00        0.00
  LS-15                STORAGE   -nan(ind)     0.00     0.67     0  00:00        0.00
  LS-16                STORAGE   -nan(ind)     0.00     0.22     0  00:00        0.00
  LS-17                STORAGE   -nan(ind)     0.00    -1.27     0  00:00        0.00
  LS-18                STORAGE   -nan(ind)     0.00     0.01     0  00:00        0.00
  LS-19                STORAGE   -nan(ind)     0.00    -0.56     0  00:00        0.00
  LS-20                STORAGE   -nan(ind)     0.00    -0.19     0  00:00        0.00
  LS-21                STORAGE   -nan(ind)     0.00    -4.77     0  00:00        0.00
  LS-22                STORAGE   -nan(ind)     0.00    -1.00     0  00:00        0.00
  LS-23                STORAGE   -nan(ind)     0.00     0.52     0  00:00        0.00
  LS-24                STORAGE   -nan(ind)     0.00    -3.81     0  00:00        0.00
  LS-25                STORAGE   -nan(ind)     0.00    -7.84     0  00:00        0.00
  LS-26                STORAGE   -nan(ind)     0.00     0.61     0  00:00        0.00
  LS-27                STORAGE   -nan(ind)     0.00    -5.92     0  00:00        0.00
  LS-28                STORAGE   -nan(ind)     0.00    -5.93     0  00:00        0.00
  LS-29                STORAGE   -nan(ind)     0.00    -3.00     0  00:00        0.00
  LS-30                STORAGE   -nan(ind)     0.00    -6.50     0  00:00        0.00
  LS-31                STORAGE   -nan(ind)     0.00     1.99     0  00:00        0.00
  LS-32                STORAGE   -nan(ind)     0.00   -12.12     0  00:00        0.00
  LS-33                STORAGE   -nan(ind)     0.00     1.22     0  00:00        0.00
  LS-34                STORAGE   -nan(ind)     0.00   -10.09     0  00:00        0.00
  LS-35                STORAGE   -nan(ind)     0.00    -3.00     0  00:00        0.00
  LS-38                STORAGE   -nan(ind)     0.00    -4.29     0  00:00        0.00
  LS-39                STORAGE   -nan(ind)     0.00    -5.49     0  00:00        0.00
  LS-40                STORAGE   -nan(ind)     0.00    -5.13     0  00:00        0.00
  LS-41                STORAGE   -nan(ind)     0.00    -7.85     0  00:00        0.00
  LS-42                STORAGE   -nan(ind)     0.00   -10.03     0  00:00        0.00
  LS-43                STORAGE   -nan(ind)     0.00   -14.50     0  00:00        0.00
  LS-44                STORAGE   -nan(ind)     0.00    -1.46     0  00:00        0.00
  LS-45                STORAGE   -nan(ind)     0.00    -6.32     0  00:00        0.00
  LS-46                STORAGE   -nan(ind)     0.00    -4.35     0  00:00        0.00
  LS-47                STORAGE   -nan(ind)     0.00   -15.55     0  00:00        0.00
  LS-49                STORAGE   -nan(ind)     0.00    -5.92     0  00:00        0.00
  LS-50                STORAGE   -nan(ind)     0.00    -4.98     0  00:00        0.00
  LS-51                STORAGE   -nan(ind)     0.00    -6.89     0  00:00        0.00
  LS-53                STORAGE   -nan(ind)     0.00     1.87     0  00:00        0.00
  LS-54                STORAGE   -nan(ind)     0.00    -7.77     0  00:00        0.00
  LS-55                STORAGE   -nan(ind)     0.00    -7.17     0  00:00        0.00
  LS-56                STORAGE   -nan(ind)     0.00    -8.24     0  00:00        0.00
  LS-57                STORAGE   -nan(ind)     0.00    -4.60     0  00:00        0.00
  LS-58                STORAGE   -nan(ind)     0.00    -8.92     0  00:00        0.00
  LS-59                STORAGE   -nan(ind)     0.00    -3.02     0  00:00        0.00
  LS-60                STORAGE   -nan(ind)     0.00    -9.00     0  00:00        0.00
  LS-61                STORAGE   -nan(ind)     0.00    -5.26     0  00:00        0.00
  LS-62                STORAGE   -nan(ind)     0.00    -3.17     0  00:00        0.00
  LS-63                STORAGE   -nan(ind)     0.00    -5.41     0  00:00        0.00
  LS-64                STORAGE   -nan(ind)     0.00    -7.18     0  00:00        0.00
  LS-65                STORAGE   -nan(ind)     0.00   -12.44     0  00:00        0.00
  LS-67                STORAGE   -nan(ind)     0.00    -1.87     0  00:00        0.00
  LS-68                STORAGE   -nan(ind)     0.00    -3.01     0  00:00        0.00
  LS-69                STORAGE   -nan(ind)     0.00    -9.00     0  00:00        0.00
  LS-70                STORAGE   -nan(ind)     0.00    -3.43     0  00:00        0.00
  LS-71                STORAGE   -nan(ind)     0.00    -9.19     0  00:00        0.00
  LS-72                STORAGE   -nan(ind)     0.00    -1.80     0  00:00        0.00
  LS-73                STORAGE   -nan(ind)     0.00    -8.22     0  00:00        0.00
  LS-74                STORAGE   -nan(ind)     0.00    -1.59     0  00:00        0.00
  LS-75                STORAGE   -nan(ind)     0.00    -3.62     0  00:00        0.00
  LS-76                STORAGE   -nan(ind)     0.00    -2.01     0  00:00        0.00
  LS-77                STORAGE   -nan(ind)     0.00    -3.26     0  00:00        0.00
  LS-78                STORAGE   -nan(ind)     0.00    -8.66     0  00:00        0.00
  LS-79                STORAGE   -nan(ind)     0.00    -6.63     0  00:00        0.00
  LS-81                STORAGE   -nan(ind)     0.00    -2.22     0  00:00        0.00
  LS-82                STORAGE   -nan(ind)     0.00     0.34     0  00:00        0.00
  LS-83                STORAGE   -nan(ind)     0.00    -2.84     0  00:00        0.00
  LS-84                STORAGE   -nan(ind)     0.00    -8.15     0  00:00        0.00
  LS-86                STORAGE   -nan(ind)     0.00    -0.27     0  00:00        0.00
  LS-87                STORAGE   -nan(ind)     0.00    -5.91     0  00:00        0.00
  
  
  *******************
  Node Inflow Summary
  *******************
  
  -------------------------------------------------------------------------------------------------
                                  Maximum  Maximum                  Lateral       Total        Flow
                                  Lateral    Total  Time of Max      Inflow      Inflow     Balance
                                   Inflow   Inflow   Occurrence      Volume      Volume       Error
  Node                 Type           GPM      GPM  days hr:min    10^6 gal    10^6 gal     Percent
  -------------------------------------------------------------------------------------------------
  01-115               JUNCTION      0.00     0.00     0  00:00           0           0       0.000 gal
  01-124               JUNCTION      0.00     0.00     0  00:00           0           0       0.000 gal
  01-134               JUNCTION      0.00     0.00     0  00:00           0           0       0.000 gal
  01-135               JUNCTION      0.00     0.00     0  00:00           0           0       0.000 gal
  01-136               JUNCTION      0.00     0.00     0  00:00           0           0       0.000 gal
  01-148               JUNCTION      0.00     0.00     0  00:00           0           0       0.000 gal
  01-151               JUNCTION      0.00     0.00     0  00:00           0           0       0.000 gal
  01-152               JUNCTION      0.00     0.00     0  00:00           0           0       0.000 gal
  01-183               JUNCTION      0.00     0.00     0  00:00           0           0       0.000 gal
  01-187               JUNCTION      0.00     0.00     0  00:00           0           0       0.000 gal
  01-188               JUNCTION      0.00     0.00     0  00:00           0           0       0.000 gal
  01-192               JUNCTION      0.00     0.00     0  00:00           0           0       0.000 gal
  01-196               JUNCTION      0.00     0.00     0  00:00           0           0       0.000 gal
  01-20                JUNCTION      0.00     0.00     0  00:00           0           0       0.000 gal
  01-204               JUNCTION      0.00     0.00     0  00:00           0           0       0.000 gal
  01-206               JUNCTION      0.00     0.00     0  00:00           0           0       0.000 gal
  01-21                JUNCTION      0.00     0.00     0  00:00           0           0       0.000 gal
  01-212               JUNCTION      0.00     0.00     0  00:00           0           0       0.000 gal
  01-226               JUNCTION      0.00     0.00     0  00:00           0           0       0.000 gal
  01-227               JUNCTION      0.00     0.00     0  00:00           0           0       0.000 gal
  01-23                JUNCTION      0.00     0.00     0  00:00           0           0       0.000 gal
  01-231               JUNCTION      0.00     0.00     0  00:00           0           0       0.000 gal
  01-232               JUNCTION      0.00     0.00     0  00:00           0           0       0.000 gal
  01-233               JUNCTION      0.00     0.00     0  00:00           0           0       0.000 gal
  01-24                JUNCTION      0.00     0.00     0  00:00           0           0       0.000 gal
  01-25                JUNCTION      0.00     0.00     0  00:00           0           0       0.000 gal
  01-28                JUNCTION      0.00     0.00     0  00:00           0           0       0.000 gal
  01-38                JUNCTION      0.00     0.00     0  00:00           0           0       0.000 gal
  01-39                JUNCTION      0.00     0.00     0  00:00           0           0       0.000 gal
  01-40                JUNCTION      0.00     0.00     0  00:00           0           0       0.000 gal
  01-41                JUNCTION      0.00     0.00     0  00:00           0           0       0.000 gal
  01-42                JUNCTION      0.00     0.00     0  00:00           0           0       0.000 gal
  01-44                JUNCTION      0.00     0.00     0  00:00           0           0       0.000 gal
  01-45                JUNCTION      0.00     0.00     0  00:00           0           0       0.000 gal
  01-46                JUNCTION      0.00     0.00     0  00:00           0           0       0.000 gal
  01-89                JUNCTION      0.00     0.00     0  00:00           0           0       0.000 gal
  01-90                JUNCTION      0.00     0.00     0  00:00           0           0       0.000 gal
  01-91                JUNCTION      0.00     0.00     0  00:00           0           0       0.000 gal
  01-92                JUNCTION      0.00     0.00     0  00:00           0           0       0.000 gal
  01-A-40              JUNCTION      0.00     0.00     0  00:00           0           0       0.000 gal
  01-A6                JUNCTION      0.00     0.00     0  00:00           0           0       0.000 gal
  04-11                JUNCTION      0.00     0.00     0  00:00           0           0       0.000 gal
  04-12                JUNCTION      0.00     0.00     0  00:00           0           0       0.000 gal
  04-13                JUNCTION      0.00     0.00     0  00:00           0           0       0.000 gal
  04-16                JUNCTION      0.00     0.00     0  00:00           0           0       0.000 gal
  04-18                JUNCTION      0.00     0.00     0  00:00           0           0       0.000 gal
  04-21                JUNCTION      0.00     0.00     0  00:00           0           0       0.000 gal
  04-27                JUNCTION      0.00     0.00     0  00:00           0           0       0.000 gal
  04-28                JUNCTION      0.00     0.00     0  00:00           0           0       0.000 gal
  05-23                JUNCTION      0.00     0.00     0  00:00           0           0       0.000 gal
  05-24                JUNCTION      0.00     0.00     0  00:00           0           0       0.000 gal
  05-25                JUNCTION      0.00     0.00     0  00:00           0           0       0.000 gal
  05-26                JUNCTION      0.00     0.00     0  00:00           0           0       0.000 gal
  05-27                JUNCTION      0.00     0.00     0  00:00           0           0       0.000 gal
  05-29                JUNCTION      0.00     0.00     0  00:00           0           0       0.000 gal
  05-30                JUNCTION      0.00     0.00     0  00:00           0           0       0.000 gal
  05-40                JUNCTION      0.00     0.00     0  00:00           0           0       0.000 gal
  06-04                JUNCTION      0.00     0.00     0  00:00           0           0       0.000 gal
  06-09                JUNCTION      0.00     0.00     0  00:00           0           0       0.000 gal
  06-11                JUNCTION      0.00     0.00     0  00:00           0           0       0.000 gal
  06-12                JUNCTION      0.00     0.00     0  00:00           0           0       0.000 gal
  06-21                JUNCTION      0.00     0.00     0  00:00           0           0       0.000 gal
  06-22                JUNCTION      0.00     0.00     0  00:00           0           0       0.000 gal
  06-25                JUNCTION      0.00     0.00     0  00:00           0           0       0.000 gal
  06-27                JUNCTION      0.00     0.00     0  00:00           0           0       0.000 gal
  06-28                JUNCTION      0.00     0.00     0  00:00           0           0       0.000 gal
  06-29                JUNCTION      0.00     0.00     0  00:00           0           0       0.000 gal
  06-30                JUNCTION      0.00     0.00     0  00:00           0           0       0.000 gal
  06-31                JUNCTION      0.00     0.00     0  00:00           0           0       0.000 gal
  06-52                JUNCTION      0.00     0.00     0  00:00           0           0       0.000 gal
  06-53                JUNCTION      0.00     0.00     0  00:00           0           0       0.000 gal
  06-54                JUNCTION      0.00     0.00     0  00:00           0           0       0.000 gal
  06-55                JUNCTION      0.00     0.00     0  00:00           0           0       0.000 gal
  06-56                JUNCTION      0.00     0.00     0  00:00           0           0       0.000 gal
  08-01                JUNCTION      0.00     0.00     0  00:00           0           0       0.000 gal
  08-02                JUNCTION      0.00     0.00     0  00:00           0           0       0.000 gal
  08-09                JUNCTION      0.00     0.00     0  00:00           0           0       0.000 gal
  08-13                JUNCTION      0.00     0.00     0  00:00           0           0       0.000 gal
  08-14                JUNCTION      0.00     0.00     0  00:00           0           0       0.000 gal
  08-19                JUNCTION      0.00     0.00     0  00:00           0           0       0.000 gal
  09-01                JUNCTION      0.00     0.00     0  00:00           0           0       0.000 gal
  09-02                JUNCTION      0.00     0.00     0  00:00           0           0       0.000 gal
  09-03                JUNCTION      0.00     0.00     0  00:00           0           0       0.000 gal
  09-04                JUNCTION      0.00     0.00     0  00:00           0           0       0.000 gal
  09-06                JUNCTION      0.00     0.00     0  00:00           0           0       0.000 gal
  1000-1               JUNCTION      0.00     0.00     0  00:00           0           0       0.000 gal
  1000-13              JUNCTION      0.00     0.00     0  00:00           0           0       0.000 gal
  1000-14              JUNCTION      0.00     0.00     0  00:00           0           0       0.000 gal
  1000-15              JUNCTION      0.00     0.00     0  00:00           0           0       0.000 gal
  1000-16              JUNCTION      0.00     0.00     0  00:00           0           0       0.000 gal
  1000-17              JUNCTION      0.00     0.00     0  00:00           0           0       0.000 gal
  1000-18              JUNCTION      0.00     0.00     0  00:00           0           0       0.000 gal
  1000-2               JUNCTION      0.00     0.00     0  00:00           0           0       0.000 gal
  1000-20              JUNCTION      0.00     0.00     0  00:00           0           0       0.000 gal
  1000-23              JUNCTION      0.00     0.00     0  00:00           0           0       0.000 gal
  1000-24              JUNCTION      0.00     0.00     0  00:00           0           0       0.000 gal
  1000-28              JUNCTION      0.00     0.00     0  00:00           0           0       0.000 gal
  1000-29              JUNCTION      0.00     0.00     0  00:00           0           0       0.000 gal
  1000-3               JUNCTION      0.00     0.00     0  00:00           0           0       0.000 gal
  1000-4               JUNCTION      0.00     0.00     0  00:00           0           0       0.000 gal
  1000-5               JUNCTION      0.00     0.00     0  00:00           0           0       0.000 gal
  1000-6               JUNCTION      0.00     0.00     0  00:00           0           0       0.000 gal
  1000-7               JUNCTION      0.00     0.00     0  00:00           0           0       0.000 gal
  1000-8               JUNCTION      0.00     0.00     0  00:00           0           0       0.000 gal
  1000-9               JUNCTION      0.00     0.00     0  00:00           0           0       0.000 gal
  13-01                JUNCTION      0.00     0.00     0  00:00           0           0       0.000 gal
  13-02                JUNCTION      0.00     0.00     0  00:00           0           0       0.000 gal
  13-04                JUNCTION      0.00     0.00     0  00:00           0           0       0.000 gal
  13-05                JUNCTION      0.00     0.00     0  00:00           0           0       0.000 gal
  13-10                JUNCTION      0.00     0.00     0  00:00           0           0       0.000 gal
  25-01                JUNCTION      0.00     0.00     0  00:00           0           0       0.000 gal
  25-02                JUNCTION      0.00     0.00     0  00:00           0           0       0.000 gal
  25-03                JUNCTION      0.00     0.00     0  00:00           0           0       0.000 gal
  25-06                JUNCTION      0.00     0.00     0  00:00           0           0       0.000 gal
  25-07                JUNCTION      0.00     0.00     0  00:00           0           0       0.000 gal
  25-08                JUNCTION      0.00     0.00     0  00:00           0           0       0.000 gal
  25-09                JUNCTION      0.00     0.00     0  00:00           0           0       0.000 gal
  25-10                JUNCTION      0.00     0.00     0  00:00           0           0       0.000 gal
  25-11                JUNCTION      0.00     0.00     0  00:00           0           0       0.000 gal
  25-12                JUNCTION      0.00     0.00     0  00:00           0           0       0.000 gal
  25-13                JUNCTION      0.00     0.00     0  00:00           0           0       0.000 gal
  27-34                JUNCTION      0.00     0.00     0  00:00           0           0       0.000 gal
  27-35                JUNCTION      0.00     0.00     0  00:00           0           0       0.000 gal
  27-36                JUNCTION      0.00     0.00     0  00:00           0           0       0.000 gal
  27-37                JUNCTION      0.00     0.00     0  00:00           0           0       0.000 gal
  27-47                JUNCTION      0.00     0.00     0  00:00           0           0       0.000 gal
  27-A28               JUNCTION      0.00     0.00     0  00:00           0           0       0.000 gal
  29-01A               JUNCTION      0.00     0.00     0  00:00           0           0       0.000 gal
  29-03                JUNCTION      0.00     0.00     0  00:00           0           0       0.000 gal
  29-08                JUNCTION      0.00     0.00     0  00:00           0           0       0.000 gal
  29-09                JUNCTION      0.00     0.00     0  00:00           0           0       0.000 gal
  34-01                JUNCTION      0.00     0.00     0  00:00           0           0       0.000 gal
  34-17                JUNCTION      0.00     0.00     0  00:00           0           0       0.000 gal
  34-20                JUNCTION      0.00     0.00     0  00:00           0           0       0.000 gal
  34-21                JUNCTION      0.00     0.00     0  00:00           0           0       0.000 gal
  34-23                JUNCTION      0.00     0.00     0  00:00           0           0       0.000 gal
  34-26                JUNCTION      0.00     0.00     0  00:00           0           0       0.000 gal
  34-28                JUNCTION      0.00     0.00     0  00:00           0           0       0.000 gal
  34-29                JUNCTION      0.00     0.00     0  00:00           0           0       0.000 gal
  39-01                JUNCTION      0.00     0.00     0  00:00           0           0       0.000 gal
  39-02                JUNCTION      0.00     0.00     0  00:00           0           0       0.000 gal
  39-03                JUNCTION      0.00     0.00     0  00:00           0           0       0.000 gal
  39-04                JUNCTION      0.00     0.00     0  00:00           0           0       0.000 gal
  39-05                JUNCTION      0.00     0.00     0  00:00           0           0       0.000 gal
  39-06                JUNCTION      0.00     0.00     0  00:00           0           0       0.000 gal
  39-07                JUNCTION      0.00     0.00     0  00:00           0           0       0.000 gal
  39-08                JUNCTION      0.00     0.00     0  00:00           0           0       0.000 gal
  39-09                JUNCTION      0.00     0.00     0  00:00           0           0       0.000 gal
  39-10                JUNCTION      0.00     0.00     0  00:00           0           0       0.000 gal
  39-11                JUNCTION      0.00     0.00     0  00:00           0           0       0.000 gal
  39-12                JUNCTION      0.00     0.00     0  00:00           0           0       0.000 gal
  39-14                JUNCTION      0.00     0.00     0  00:00           0           0       0.000 gal
  39-26                JUNCTION      0.00     0.00     0  00:00           0           0       0.000 gal
  39-27                JUNCTION      0.00     0.00     0  00:00           0           0       0.000 gal
  39-28                JUNCTION      0.00     0.00     0  00:00           0           0       0.000 gal
  39-29                JUNCTION      0.00     0.00     0  00:00           0           0       0.000 gal
  39-31                JUNCTION      0.00     0.00     0  00:00           0           0       0.000 gal
  44-A34               JUNCTION      0.00     0.00     0  00:00           0           0       0.000 gal
  57-01                JUNCTION      0.00     0.00     0  00:00           0           0       0.000 gal
  57-01A               JUNCTION      0.00     0.00     0  00:00           0           0       0.000 gal
  57-02                JUNCTION      0.00     0.00     0  00:00           0           0       0.000 gal
  65-01                JUNCTION      0.00     0.00     0  00:00           0           0       0.000 gal
  65-28                JUNCTION      0.00     0.00     0  00:00           0           0       0.000 gal
  65-29                JUNCTION      0.00     0.00     0  00:00           0           0       0.000 gal
  65-30                JUNCTION      0.00     0.00     0  00:00           0           0       0.000 gal
  65-31                JUNCTION      0.00     0.00     0  00:00           0           0       0.000 gal
  65-32                JUNCTION      0.00     0.00     0  00:00           0           0       0.000 gal
  65-33                JUNCTION      0.00     0.00     0  00:00           0           0       0.000 gal
  65-34                JUNCTION      0.00     0.00     0  00:00           0           0       0.000 gal
  68-01                JUNCTION      0.00     0.00     0  00:00           0           0       0.000 gal
  68-A                 JUNCTION      0.00     0.00     0  00:00           0           0       0.000 gal
  68-B                 JUNCTION      0.00     0.00     0  00:00           0           0       0.000 gal
  68-C                 JUNCTION      0.00     0.00     0  00:00           0           0       0.000 gal
  68-D                 JUNCTION      0.00     0.00     0  00:00           0           0       0.000 gal
  69-01                JUNCTION      0.00     0.00     0  00:00           0           0       0.000 gal
  77-01                JUNCTION      0.00     0.00     0  00:00           0           0       0.000 gal
  FM-0B                JUNCTION      0.00     0.00     0  00:00           0           0       0.000 gal
  J-1                  JUNCTION      0.00     0.00     0  00:00           0           0       0.000 gal
  J-100                JUNCTION      0.00     0.00     0  00:00           0           0       0.000 gal
  J-101                JUNCTION      0.00     0.00     0  00:00           0           0       0.000 gal
  J-103                JUNCTION      0.00     0.00     0  00:00           0           0       0.000 gal
  J-104                JUNCTION      0.00     0.00     0  00:00           0           0       0.000 gal
  J-105                JUNCTION      0.00     0.00     0  00:00           0           0       0.000 gal
  J-106                JUNCTION      0.00     0.00     0  00:00           0           0       0.000 gal
  J-108                JUNCTION      0.00     0.00     0  00:00           0           0       0.000 gal
  J-110                JUNCTION      0.00     0.00     0  00:00           0           0       0.000 gal
  J-111                JUNCTION      0.00     0.00     0  00:00           0           0       0.000 gal
  J-112                JUNCTION      0.00     0.00     0  00:00           0           0       0.000 gal
  J-113                JUNCTION      0.00     0.00     0  00:00           0           0       0.000 gal
  J-114                JUNCTION      0.00     0.00     0  00:00           0           0       0.000 gal
  J-115                JUNCTION      0.00     0.00     0  00:00           0           0       0.000 gal
  J-116                JUNCTION      0.00     0.00     0  00:00           0           0       0.000 gal
  J-117                JUNCTION      0.00     0.00     0  00:00           0           0       0.000 gal
  J-118                JUNCTION      0.00     0.00     0  00:00           0           0       0.000 gal
  J-119                JUNCTION      0.00     0.00     0  00:00           0           0       0.000 gal
  J-12                 JUNCTION      0.00     0.00     0  00:00           0           0       0.000 gal
  J-120                JUNCTION      0.00     0.00     0  00:00           0           0       0.000 gal
  J-121                JUNCTION      0.00     0.00     0  00:00           0           0       0.000 gal
  J-123                JUNCTION      0.00     0.00     0  00:00           0           0       0.000 gal
  J-124                JUNCTION      0.00     0.00     0  00:00           0           0       0.000 gal
  J-125                JUNCTION      0.00     0.00     0  00:00           0           0       0.000 gal
  J-126                JUNCTION      0.00     0.00     0  00:00           0           0       0.000 gal
  J-127                JUNCTION      0.00     0.00     0  00:00           0           0       0.000 gal
  J-128                JUNCTION      0.00     0.00     0  00:00           0           0       0.000 gal
  J-129                JUNCTION      0.00     0.00     0  00:00           0           0       0.000 gal
  J-131                JUNCTION      0.00     0.00     0  00:00           0           0       0.000 gal
  J-132                JUNCTION      0.00     0.00     0  00:00           0           0       0.000 gal
  J-133                JUNCTION      0.00     0.00     0  00:00           0           0       0.000 gal
  J-134                JUNCTION      0.00     0.00     0  00:00           0           0       0.000 gal
  J-135                JUNCTION      0.00     0.00     0  00:00           0           0       0.000 gal
  J-136                JUNCTION      0.00     0.00     0  00:00           0           0       0.000 gal
  J-137                JUNCTION      0.00     0.00     0  00:00           0           0       0.000 gal
  J-138                JUNCTION      0.00     0.00     0  00:00           0           0       0.000 gal
  J-139                JUNCTION      0.00     0.00     0  00:00           0           0       0.000 gal
  J-14                 JUNCTION      0.00     0.00     0  00:00           0           0       0.000 gal
  J-140                JUNCTION      0.00     0.00     0  00:00           0           0       0.000 gal
  J-142                JUNCTION      0.00     0.00     0  00:00           0           0       0.000 gal
[...]
  G-861                   1.00   -nan(ind)  -nan(ind)  -nan(ind)  -nan(ind)  -nan(ind)  -nan(ind)  -nan(ind)  -nan(ind)  -nan(ind)
  G-970                   1.00   -nan(ind)  -nan(ind)  -nan(ind)  -nan(ind)  -nan(ind)  -nan(ind)  -nan(ind)  -nan(ind)  -nan(ind)
  G-971                   1.00   -nan(ind)  -nan(ind)  -nan(ind)  -nan(ind)  -nan(ind)  -nan(ind)  -nan(ind)  -nan(ind)  -nan(ind)
  G-992                   1.00   -nan(ind)  -nan(ind)  -nan(ind)  -nan(ind)  -nan(ind)  -nan(ind)  -nan(ind)  -nan(ind)  -nan(ind)
  G-995                   1.00   -nan(ind)  -nan(ind)  -nan(ind)  -nan(ind)  -nan(ind)  -nan(ind)  -nan(ind)  -nan(ind)  -nan(ind)
  G-996                   1.00   -nan(ind)  -nan(ind)  -nan(ind)  -nan(ind)  -nan(ind)  -nan(ind)  -nan(ind)  -nan(ind)  -nan(ind)
  
  
  *************************
  Conduit Surcharge Summary
  *************************
  
  No conduits were surcharged.
  
  
  ***************
  Pumping Summary
  ***************
  
  ---------------------------------------------------------------------------------------------------------
                                                  Min       Avg       Max     Total     Power    % Time Off
                        Percent   Number of      Flow      Flow      Flow    Volume     Usage    Pump Curve
  Pump                 Utilized   Start-Ups       GPM       GPM       GPM  10^6 gal     Kw-hr    Low   High
  ---------------------------------------------------------------------------------------------------------
  LS-00_PMP-1          -nan(ind)           0      0.00      0.00      0.00     0.000      0.00    0.0    0.0
  LS-00_PMP-2          -nan(ind)           0      0.00      0.00      0.00     0.000      0.00    0.0    0.0
  LS-01_PMP-1          -nan(ind)           0      0.00      0.00      0.00     0.000      0.00    0.0    0.0
  LS-01_PMP-2          -nan(ind)           0      0.00      0.00      0.00     0.000      0.00    0.0    0.0
  LS-02_PMP-1          -nan(ind)           0      0.00      0.00      0.00     0.000      0.00    0.0    0.0
  LS-02_PMP-2          -nan(ind)           0      0.00      0.00      0.00     0.000      0.00    0.0    0.0
  LS-03_PMP-1          -nan(ind)           0      0.00      0.00      0.00     0.000      0.00    0.0    0.0
  LS-03_PMP-2          -nan(ind)           0      0.00      0.00      0.00     0.000      0.00    0.0    0.0
  LS-04_PMP-1          -nan(ind)           0      0.00      0.00      0.00     0.000      0.00    0.0    0.0
  LS-04_PMP-2          -nan(ind)           0      0.00      0.00      0.00     0.000      0.00    0.0    0.0
  LS-05_PMP-1          -nan(ind)           0      0.00      0.00      0.00     0.000      0.00    0.0    0.0
  LS-05_PMP-2          -nan(ind)           0      0.00      0.00      0.00     0.000      0.00    0.0    0.0
  LS-06_PMP-1          -nan(ind)           0      0.00      0.00      0.00     0.000      0.00    0.0    0.0
  LS-06_PMP-2          -nan(ind)           0      0.00      0.00      0.00     0.000      0.00    0.0    0.0
  LS-07_PMP-1          -nan(ind)           0      0.00      0.00      0.00     0.000      0.00    0.0    0.0
  LS-07_PMP-2          -nan(ind)           0      0.00      0.00      0.00     0.000      0.00    0.0    0.0
  LS-07_PMP-3          -nan(ind)           0      0.00      0.00      0.00     0.000      0.00    0.0    0.0
  LS-08_PMP-1          -nan(ind)           0      0.00      0.00      0.00     0.000      0.00    0.0    0.0
  LS-08_PMP-2          -nan(ind)           0      0.00      0.00      0.00     0.000      0.00    0.0    0.0
  LS-09_PMP-1          -nan(ind)           0      0.00      0.00      0.00     0.000      0.00    0.0    0.0
  LS-09_PMP-2          -nan(ind)           0      0.00      0.00      0.00     0.000      0.00    0.0    0.0
  LS-1002_PMP-1        -nan(ind)           0      0.00      0.00      0.00     0.000      0.00    0.0    0.0
  LS-1002_PMP-2        -nan(ind)           0      0.00      0.00      0.00     0.000      0.00    0.0    0.0
  LS-1004_PMP-1        -nan(ind)           0      0.00      0.00      0.00     0.000      0.00    0.0    0.0
  LS-1004_PMP-2        -nan(ind)           0      0.00      0.00      0.00     0.000      0.00    0.0    0.0
  LS-10_PMP-1          -nan(ind)           0      0.00      0.00      0.00     0.000      0.00    0.0    0.0
  LS-10_PMP-2          -nan(ind)           0      0.00      0.00      0.00     0.000      0.00    0.0    0.0
  LS-11_PMP-1          -nan(ind)           0      0.00      0.00      0.00     0.000      0.00    0.0    0.0
  LS-11_PMP-2          -nan(ind)           0      0.00      0.00      0.00     0.000      0.00    0.0    0.0
  LS-12_PMP-1          -nan(ind)           0      0.00      0.00      0.00     0.000      0.00    0.0    0.0
  LS-12_PMP-2          -nan(ind)           0      0.00      0.00      0.00     0.000      0.00    0.0    0.0
  LS-13_PMP-1          -nan(ind)           0      0.00      0.00      0.00     0.000      0.00    0.0    0.0
  LS-13_PMP-2          -nan(ind)           0      0.00      0.00      0.00     0.000      0.00    0.0    0.0
  LS-14_PMP-1          -nan(ind)           0      0.00      0.00      0.00     0.000      0.00    0.0    0.0
  LS-14_PMP-2          -nan(ind)           0      0.00      0.00      0.00     0.000      0.00    0.0    0.0
  LS-15_PMP-1          -nan(ind)           0      0.00      0.00      0.00     0.000      0.00    0.0    0.0
  LS-15_PMP-2          -nan(ind)           0      0.00      0.00      0.00     0.000      0.00    0.0    0.0
  LS-16_PMP-1          -nan(ind)           0      0.00      0.00      0.00     0.000      0.00    0.0    0.0
  LS-16_PMP-2          -nan(ind)           0      0.00      0.00      0.00     0.000      0.00    0.0    0.0
  LS-17_PMP-1          -nan(ind)           0      0.00      0.00      0.00     0.000      0.00    0.0    0.0
  LS-17_PMP-2          -nan(ind)           0      0.00      0.00      0.00     0.000      0.00    0.0    0.0
  LS-18_PMP-1          -nan(ind)           0      0.00      0.00      0.00     0.000      0.00    0.0    0.0
  LS-18_PMP-2          -nan(ind)           0      0.00      0.00      0.00     0.000      0.00    0.0    0.0
  LS-19_PMP-1          -nan(ind)           0      0.00      0.00      0.00     0.000      0.00    0.0    0.0
  LS-19_PMP-2          -nan(ind)           0      0.00      0.00      0.00     0.000      0.00    0.0    0.0
  LS-20_PMP-1          -nan(ind)           0      0.00      0.00      0.00     0.000      0.00    0.0    0.0
  LS-20_PMP-2          -nan(ind)           0      0.00      0.00      0.00     0.000      0.00    0.0    0.0
  LS-21_PMP-1          -nan(ind)           0      0.00      0.00      0.00     0.000      0.00    0.0    0.0
  LS-21_PMP-2          -nan(ind)           0      0.00      0.00      0.00     0.000      0.00    0.0    0.0
  LS-22_PMP-1          -nan(ind)           0      0.00      0.00      0.00     0.000      0.00    0.0    0.0
  LS-22_PMP-2          -nan(ind)           0      0.00      0.00      0.00     0.000      0.00    0.0    0.0
  LS-23_PMP-1          -nan(ind)           0      0.00      0.00      0.00     0.000      0.00    0.0    0.0
  LS-23_PMP-2          -nan(ind)           0      0.00      0.00      0.00     0.000      0.00    0.0    0.0
  LS-24_PMP-1          -nan(ind)           0      0.00      0.00      0.00     0.000      0.00    0.0    0.0
  LS-24_PMP-2          -nan(ind)           0      0.00      0.00      0.00     0.000      0.00    0.0    0.0
  LS-25_PMP-1          -nan(ind)           0      0.00      0.00      0.00     0.000      0.00    0.0    0.0
  LS-25_PMP-2          -nan(ind)           0      0.00      0.00      0.00     0.000      0.00    0.0    0.0
  LS-26_PMP-1          -nan(ind)           0      0.00      0.00      0.00     0.000      0.00    0.0    0.0
  LS-26_PMP-2          -nan(ind)           0      0.00      0.00      0.00     0.000      0.00    0.0    0.0
  LS-27_PMP-1          -nan(ind)           0      0.00      0.00      0.00     0.000      0.00    0.0    0.0
  LS-27_PMP-2          -nan(ind)           0      0.00      0.00      0.00     0.000      0.00    0.0    0.0
  LS-28_PMP-1          -nan(ind)           0      0.00      0.00      0.00     0.000      0.00    0.0    0.0
  LS-28_PMP-2          -nan(ind)           0      0.00      0.00      0.00     0.000      0.00    0.0    0.0
  LS-29_PMP-1          -nan(ind)           0      0.00      0.00      0.00     0.000      0.00    0.0    0.0
  LS-29_PMP-2          -nan(ind)           0      0.00      0.00      0.00     0.000      0.00    0.0    0.0
  LS-30_PMP-1          -nan(ind)           0      0.00      0.00      0.00     0.000      0.00    0.0    0.0
  LS-30_PMP-2          -nan(ind)           0      0.00      0.00      0.00     0.000      0.00    0.0    0.0
  LS-31_PMP-1          -nan(ind)           0      0.00      0.00      0.00     0.000      0.00    0.0    0.0
  LS-31_PMP-2          -nan(ind)           0      0.00      0.00      0.00     0.000      0.00    0.0    0.0
  LS-32_PMP-1          -nan(ind)           0      0.00      0.00      0.00     0.000      0.00    0.0    0.0
  LS-32_PMP-2          -nan(ind)           0      0.00      0.00      0.00     0.000      0.00    0.0    0.0
  LS-33_PMP-1          -nan(ind)           0      0.00      0.00      0.00     0.000      0.00    0.0    0.0
  LS-33_PMP-2          -nan(ind)           0      0.00      0.00      0.00     0.000      0.00    0.0    0.0
  LS-34_PMP-1          -nan(ind)           0      0.00      0.00      0.00     0.000      0.00    0.0    0.0
  LS-34_PMP-2          -nan(ind)           0      0.00      0.00      0.00     0.000      0.00    0.0    0.0
  LS-35_PMP-1          -nan(ind)           0      0.00      0.00      0.00     0.000      0.00    0.0    0.0
  LS-35_PMP-2          -nan(ind)           0      0.00      0.00      0.00     0.000      0.00    0.0    0.0
  LS-38_PMP-1          -nan(ind)           0      0.00      0.00      0.00     0.000      0.00    0.0    0.0
  LS-38_PMP-2          -nan(ind)           0      0.00      0.00      0.00     0.000      0.00    0.0    0.0
  LS-39_PMP-1          -nan(ind)           0      0.00      0.00      0.00     0.000      0.00    0.0    0.0
  LS-39_PMP-2          -nan(ind)           0      0.00      0.00      0.00     0.000      0.00    0.0    0.0
  LS-40_PMP-1          -nan(ind)           0      0.00      0.00      0.00     0.000      0.00    0.0    0.0
  LS-40_PMP-2          -nan(ind)           0      0.00      0.00      0.00     0.000      0.00    0.0    0.0
  LS-41_PMP-1          -nan(ind)           0      0.00      0.00      0.00     0.000      0.00    0.0    0.0
  LS-41_PMP-2          -nan(ind)           0      0.00      0.00      0.00     0.000      0.00    0.0    0.0
  LS-42_PMP-1          -nan(ind)           0      0.00      0.00      0.00     0.000      0.00    0.0    0.0
  LS-42_PMP-2          -nan(ind)           0      0.00      0.00      0.00     0.000      0.00    0.0    0.0
  LS-43_PMP-1          -nan(ind)           0      0.00      0.00      0.00     0.000      0.00    0.0    0.0
  LS-43_PMP-2          -nan(ind)           0      0.00      0.00      0.00     0.000      0.00    0.0    0.0
  LS-44_PMP-1          -nan(ind)           0      0.00      0.00      0.00     0.000      0.00    0.0    0.0
  LS-44_PMP-2          -nan(ind)           0      0.00      0.00      0.00     0.000      0.00    0.0    0.0
  LS-45_PMP-1          -nan(ind)           0      0.00      0.00      0.00     0.000      0.00    0.0    0.0
  LS-45_PMP-2          -nan(ind)           0      0.00      0.00      0.00     0.000      0.00    0.0    0.0
  LS-46_PMP-1          -nan(ind)           0      0.00      0.00      0.00     0.000      0.00    0.0    0.0
  LS-46_PMP-2          -nan(ind)           0      0.00      0.00      0.00     0.000      0.00    0.0    0.0
  LS-47_PMP-1          -nan(ind)           0      0.00      0.00      0.00     0.000      0.00    0.0    0.0
  LS-47_PMP-2          -nan(ind)           0      0.00      0.00      0.00     0.000      0.00    0.0    0.0
  LS-49_PMP-1          -nan(ind)           0      0.00      0.00      0.00     0.000      0.00    0.0    0.0
  LS-49_PMP-2          -nan(ind)           0      0.00      0.00      0.00     0.000      0.00    0.0    0.0
  LS-50_PMP-1          -nan(ind)           0      0.00      0.00      0.00     0.000      0.00    0.0    0.0
  LS-50_PMP-2          -nan(ind)           0      0.00      0.00      0.00     0.000      0.00    0.0    0.0
  LS-51_PMP-1          -nan(ind)           0      0.00      0.00      0.00     0.000      0.00    0.0    0.0
  LS-51_PMP-2          -nan(ind)           0      0.00      0.00      0.00     0.000      0.00    0.0    0.0
  LS-53_PMP-1          -nan(ind)           0      0.00      0.00      0.00     0.000      0.00    0.0    0.0
  LS-53_PMP-2          -nan(ind)           0      0.00      0.00      0.00     0.000      0.00    0.0    0.0
  LS-54_PMP-1          -nan(ind)           0      0.00      0.00      0.00     0.000      0.00    0.0    0.0
  LS-54_PMP-2          -nan(ind)           0      0.00      0.00      0.00     0.000      0.00    0.0    0.0
  LS-55_PMP-1          -nan(ind)           0      0.00      0.00      0.00     0.000      0.00    0.0    0.0
  LS-55_PMP-2          -nan(ind)           0      0.00      0.00      0.00     0.000      0.00    0.0    0.0
  LS-56_PMP-1          -nan(ind)           0      0.00      0.00      0.00     0.000      0.00    0.0    0.0
  LS-56_PMP-2          -nan(ind)           0      0.00      0.00      0.00     0.000      0.00    0.0    0.0
  LS-57_PMP-1          -nan(ind)           0      0.00      0.00      0.00     0.000      0.00    0.0    0.0
  LS-57_PMP-2          -nan(ind)           0      0.00      0.00      0.00     0.000      0.00    0.0    0.0
  LS-57_PMP-3          -nan(ind)           0      0.00      0.00      0.00     0.000      0.00    0.0    0.0
  LS-58_PMP-1          -nan(ind)           0      0.00      0.00      0.00     0.000      0.00    0.0    0.0
  LS-58_PMP-2          -nan(ind)           0      0.00      0.00      0.00     0.000      0.00    0.0    0.0
  LS-59_PMP-1          -nan(ind)           0      0.00      0.00      0.00     0.000      0.00    0.0    0.0
  LS-59_PMP-2          -nan(ind)           0      0.00      0.00      0.00     0.000      0.00    0.0    0.0
  LS-60_PMP-1          -nan(ind)           0      0.00      0.00      0.00     0.000      0.00    0.0    0.0
  LS-60_PMP-2          -nan(ind)           0      0.00      0.00      0.00     0.000      0.00    0.0    0.0
  LS-61_PMP-1          -nan(ind)           0      0.00      0.00      0.00     0.000      0.00    0.0    0.0
  LS-61_PMP-2          -nan(ind)           0      0.00      0.00      0.00     0.000      0.00    0.0    0.0
  LS-62_PMP-1          -nan(ind)           0      0.00      0.00      0.00     0.000      0.00    0.0    0.0
  LS-62_PMP-2          -nan(ind)           0      0.00      0.00      0.00     0.000      0.00    0.0    0.0
  LS-63_PMP-1          -nan(ind)           0      0.00      0.00      0.00     0.000      0.00    0.0    0.0
  LS-63_PMP-2          -nan(ind)           0      0.00      0.00      0.00     0.000      0.00    0.0    0.0
  LS-64_PMP-1          -nan(ind)           0      0.00      0.00      0.00     0.000      0.00    0.0    0.0
  LS-64_PMP-2          -nan(ind)           0      0.00      0.00      0.00     0.000      0.00    0.0    0.0
  LS-65_PMP-1          -nan(ind)           0      0.00      0.00      0.00     0.000      0.00    0.0    0.0
  LS-65_PMP-2          -nan(ind)           0      0.00      0.00      0.00     0.000      0.00    0.0    0.0
  LS-67_PMP-1          -nan(ind)           0      0.00      0.00      0.00     0.000      0.00    0.0    0.0
  LS-67_PMP-2          -nan(ind)           0      0.00      0.00      0.00     0.000      0.00    0.0    0.0
  LS-68_PMP-1          -nan(ind)           0      0.00      0.00      0.00     0.000      0.00    0.0    0.0
  LS-68_PMP-2          -nan(ind)           0      0.00      0.00      0.00     0.000      0.00    0.0    0.0
  LS-69_PMP-1          -nan(ind)           0      0.00      0.00      0.00     0.000      0.00    0.0    0.0
  LS-69_PMP-2          -nan(ind)           0      0.00      0.00      0.00     0.000      0.00    0.0    0.0
  LS-70_PMP-1          -nan(ind)           0      0.00      0.00      0.00     0.000      0.00    0.0    0.0
  LS-70_PMP-2          -nan(ind)           0      0.00      0.00      0.00     0.000      0.00    0.0    0.0
  LS-71_PMP-1          -nan(ind)           0      0.00      0.00      0.00     0.000      0.00    0.0    0.0
  LS-71_PMP-2          -nan(ind)           0      0.00      0.00      0.00     0.000      0.00    0.0    0.0
  LS-72_PMP-1          -nan(ind)           0      0.00      0.00      0.00     0.000      0.00    0.0    0.0
  LS-72_PMP-2          -nan(ind)           0      0.00      0.00      0.00     0.000      0.00    0.0    0.0
  LS-73_PMP-1          -nan(ind)           0      0.00      0.00      0.00     0.000      0.00    0.0    0.0
  LS-73_PMP-2          -nan(ind)           0      0.00      0.00      0.00     0.000      0.00    0.0    0.0
  LS-74_PMP-1          -nan(ind)           0      0.00      0.00      0.00     0.000      0.00    0.0    0.0
  LS-74_PMP-2          -nan(ind)           0      0.00      0.00      0.00     0.000      0.00    0.0    0.0
  LS-75_PMP-1          -nan(ind)           0      0.00      0.00      0.00     0.000      0.00    0.0    0.0
  LS-75_PMP-2          -nan(ind)           0      0.00      0.00      0.00     0.000      0.00    0.0    0.0
  LS-76_PMP-1          -nan(ind)           0      0.00      0.00      0.00     0.000      0.00    0.0    0.0
  LS-76_PMP-2          -nan(ind)           0      0.00      0.00      0.00     0.000      0.00    0.0    0.0
  LS-77_PMP-1          -nan(ind)           0      0.00      0.00      0.00     0.000      0.00    0.0    0.0
  LS-77_PMP-2          -nan(ind)           0      0.00      0.00      0.00     0.000      0.00    0.0    0.0
  LS-78_PMP-1          -nan(ind)           0      0.00      0.00      0.00     0.000      0.00    0.0    0.0
  LS-78_PMP-2          -nan(ind)           0      0.00      0.00      0.00     0.000      0.00    0.0    0.0
  LS-79_PMP-1          -nan(ind)           0      0.00      0.00      0.00     0.000      0.00    0.0    0.0
  LS-79_PMP-2          -nan(ind)           0      0.00      0.00      0.00     0.000      0.00    0.0    0.0
  LS-81_PMP-1          -nan(ind)           0      0.00      0.00      0.00     0.000      0.00    0.0    0.0
  LS-81_PMP-2          -nan(ind)           0      0.00      0.00      0.00     0.000      0.00    0.0    0.0
  LS-82_PMP-1          -nan(ind)           0      0.00      0.00      0.00     0.000      0.00    0.0    0.0
  LS-82_PMP-2          -nan(ind)           0      0.00      0.00      0.00     0.000      0.00    0.0    0.0
  LS-83_PMP-1          -nan(ind)           0      0.00      0.00      0.00     0.000      0.00    0.0    0.0
  LS-83_PMP-2          -nan(ind)           0      0.00      0.00      0.00     0.000      0.00    0.0    0.0
  LS-84_PMP-1          -nan(ind)           0      0.00      0.00      0.00     0.000      0.00    0.0    0.0
  LS-84_PMP-2          -nan(ind)           0      0.00      0.00      0.00     0.000      0.00    0.0    0.0
  LS-86_PMP-1          -nan(ind)           0      0.00      0.00      0.00     0.000      0.00    0.0    0.0
  LS-86_PMP-2          -nan(ind)           0      0.00      0.00      0.00     0.000      0.00    0.0    0.0
  LS-87_PMP-1          -nan(ind)           0      0.00      0.00      0.00     0.000      0.00    0.0    0.0
  LS-87_PMP-2          -nan(ind)           0      0.00      0.00      0.00     0.000      0.00    0.0    0.0
  

  Analysis begun on:  Sat Nov 30 08:11:45 2019
  Analysis ended on:  Sat Nov 30 08:11:45 2019
  Total elapsed time: < 1 sec